REMARK  Name = Acarbose.pdb
REMARK  23 active torsions:
REMARK  status: ('A' for Active; 'I' for Inactive)
REMARK    1  A    between atoms: O1_1  and  C22_22
REMARK    2  A    between atoms: O1_1  and  C25_25
REMARK    3  A    between atoms: O4_4  and  C30_30
REMARK    4  A    between atoms: O4_4  and  C32_32
REMARK    5  A    between atoms: O5_5  and  C21_21
REMARK    6  A    between atoms: O6_6  and  C23_23
REMARK    7  A    between atoms: O7_7  and  C26_26
REMARK    8  A    between atoms: O9_9  and  C29_29
REMARK    9  A    between atoms: O10_10  and  C31_31
REMARK   10  A    between atoms: O11_11  and  C33_33
REMARK   11  A    between atoms: O12_12  and  C34_34
REMARK   12  A    between atoms: O13_13  and  C38_38
REMARK   13  A    between atoms: O14_14  and  C39_39
REMARK   14  A    between atoms: O15_15  and  C40_40
REMARK   15  A    between atoms: O16_16  and  C42_42
REMARK   16  A    between atoms: O17_17  and  C43_43
REMARK   17  A    between atoms: O18_18  and  C44_44
REMARK   18  A    between atoms: N19_19  and  C20_20
REMARK   19  A    between atoms: N19_19  and  C28_28
REMARK   20  A    between atoms: C24_24  and  C35_35
REMARK   21  A    between atoms: C27_27  and  C39_39
REMARK   22  A    between atoms: C36_36  and  C43_43
REMARK   23  A    between atoms: C41_41  and  C44_44
REMARK                            x       y       z     vdW  Elec       q    Type
REMARK                         _______ _______ _______ _____ _____    ______ ____
ROOT
ATOM      1  O1  UNK     0     -32.110  18.306 -21.571  0.00  0.00    +0.000 OA
ENDROOT
BRANCH   1   7
ATOM      2  O2  UNK     0     -32.692  16.302 -22.633  0.00  0.00    +0.000 OA
ATOM      3  C20 UNK     0     -34.120  16.209 -24.645  0.00  0.00    +0.000 C 
ATOM      4  C21 UNK     0     -33.971  17.736 -24.788  0.00  0.00    +0.000 C 
ATOM      5  C23 UNK     0     -33.568  18.411 -23.474  0.00  0.00    +0.000 C 
ATOM      6  C24 UNK     0     -32.970  15.572 -23.835  0.00  0.00    +0.000 C 
ATOM      7  C25 UNK     0     -32.390  17.683 -22.823  0.00  0.00    +0.000 C 
ATOM      8  C35 UNK     0     -31.694  15.359 -24.652  0.00  0.00    +0.000 C 
BRANCH   4   9
ATOM      9  O5  UNK     0     -32.977  18.034 -25.768  0.00  0.00    +0.000 OA
ATOM     10  H70 UNK     0     -33.265  17.637 -26.608  0.00  0.00    +0.000 HD
ENDBRANCH   4   9
BRANCH   5  11
ATOM     11  O6  UNK     0     -34.670  18.404 -22.567  0.00  0.00    +0.000 OA
ATOM     12  H72 UNK     0     -35.398  18.893 -22.988  0.00  0.00    +0.000 HD
ENDBRANCH   5  11
BRANCH   3  13
ATOM     13  N19 UNK     0     -35.390  15.907 -23.970  0.00  0.00    +0.000 NA
ATOM     14  H55 UNK     0     -35.522  16.535 -23.179  0.00  0.00    +0.000 HD
BRANCH  13  15
ATOM     15  C28 UNK     0     -36.511  16.018 -24.908  0.00  0.00    +0.000 C 
ATOM     16  C31 UNK     0     -37.819  16.358 -24.161  0.00  0.00    +0.000 C 
ATOM     17  C33 UNK     0     -39.039  16.212 -25.081  0.00  0.00    +0.000 C 
ATOM     18  C37 UNK     0     -36.627  14.790 -25.773  0.00  0.00    +0.000 C 
ATOM     19  C38 UNK     0     -39.132  14.809 -25.711  0.00  0.00    +0.000 C 
ATOM     20  C41 UNK     0     -37.798  14.231 -26.129  0.00  0.00    +0.000 C 
BRANCH  16  21
ATOM     21  O10 UNK     0     -37.992  15.533 -23.009  0.00  0.00    +0.000 OA
ATOM     22  H77 UNK     0     -38.813  15.811 -22.570  0.00  0.00    +0.000 HD
ENDBRANCH  16  21
BRANCH  17  23
ATOM     23  O11 UNK     0     -38.963  17.173 -26.133  0.00  0.00    +0.000 OA
ATOM     24  H80 UNK     0     -39.782  17.106 -26.653  0.00  0.00    +0.000 HD
ENDBRANCH  17  23
BRANCH  19  25
ATOM     25  O13 UNK     0     -39.723  13.904 -24.779  0.00  0.00    +0.000 OA
ATOM     26  H82 UNK     0     -40.612  14.238 -24.569  0.00  0.00    +0.000 HD
ENDBRANCH  19  25
BRANCH  20  27
ATOM     27  C44 UNK     0     -37.847  13.000 -26.988  0.00  0.00    +0.000 C 
BRANCH  27  28
ATOM     28  O18 UNK     0     -38.549  13.282 -28.183  0.00  0.00    +0.000 OA
ATOM     29  H87 UNK     0     -38.576  12.460 -28.702  0.00  0.00    +0.000 HD
ENDBRANCH  27  28
ENDBRANCH  20  27
ENDBRANCH  13  15
ENDBRANCH   3  13
ENDBRANCH   1   7
BRANCH   1  31
ATOM     30  O3  UNK     0     -30.855  19.438 -19.114  0.00  0.00    +0.000 OA
ATOM     31  C22 UNK     0     -30.719  18.217 -21.244  0.00  0.00    +0.000 C 
ATOM     32  C26 UNK     0     -30.015  19.422 -21.880  0.00  0.00    +0.000 C 
ATOM     33  C27 UNK     0     -30.584  18.164 -19.713  0.00  0.00    +0.000 C 
ATOM     34  C29 UNK     0     -30.280  20.713 -21.101  0.00  0.00    +0.000 C 
ATOM     35  C30 UNK     0     -30.054  20.512 -19.601  0.00  0.00    +0.000 C 
BRANCH  32  36
ATOM     36  O7  UNK     0     -28.609  19.200 -21.921  0.00  0.00    +0.000 OA
ATOM     37  H73 UNK     0     -28.454  18.395 -22.443  0.00  0.00    +0.000 HD
ENDBRANCH  32  36
BRANCH  34  38
ATOM     38  O9  UNK     0     -31.623  21.141 -21.330  0.00  0.00    +0.000 OA
ATOM     39  H74 UNK     0     -31.726  21.285 -22.286  0.00  0.00    +0.000 HD
ENDBRANCH  34  38
BRANCH  35  40
ATOM     40  O4  UNK     0     -30.387  21.725 -18.929  0.00  0.00    +0.000 OA
BRANCH  40  42
ATOM     41  O8  UNK     0     -31.030  22.359 -15.355  0.00  0.00    +0.000 OA
ATOM     42  C32 UNK     0     -30.184  21.611 -17.522  0.00  0.00    +0.000 C 
ATOM     43  C34 UNK     0     -28.809  22.197 -17.193  0.00  0.00    +0.000 C 
ATOM     44  C36 UNK     0     -31.296  22.346 -16.762  0.00  0.00    +0.000 C 
ATOM     45  C40 UNK     0     -28.622  22.310 -15.681  0.00  0.00    +0.000 C 
ATOM     46  C42 UNK     0     -29.806  23.014 -15.016  0.00  0.00    +0.000 C 
BRANCH  43  47
ATOM     47  O12 UNK     0     -27.811  21.321 -17.723  0.00  0.00    +0.000 OA
ATOM     48  H81 UNK     0     -27.912  20.452 -17.299  0.00  0.00    +0.000 HD
ENDBRANCH  43  47
BRANCH  45  49
ATOM     49  O15 UNK     0     -27.414  23.011 -15.407  0.00  0.00    +0.000 OA
ATOM     50  H84 UNK     0     -27.321  23.068 -14.440  0.00  0.00    +0.000 HD
ENDBRANCH  45  49
BRANCH  46  51
ATOM     51  O16 UNK     0     -29.844  24.411 -15.302  0.00  0.00    +0.000 OA
ATOM     52  H85 UNK     0     -30.287  24.845 -14.554  0.00  0.00    +0.000 HD
ENDBRANCH  46  51
BRANCH  44  53
ATOM     53  C43 UNK     0     -32.657  21.681 -16.953  0.00  0.00    +0.000 C 
BRANCH  53  54
ATOM     54  O17 UNK     0     -33.621  22.409 -16.215  0.00  0.00    +0.000 OA
ATOM     55  H86 UNK     0     -34.477  21.968 -16.348  0.00  0.00    +0.000 HD
ENDBRANCH  53  54
ENDBRANCH  44  53
ENDBRANCH  40  42
ENDBRANCH  35  40
BRANCH  33  56
ATOM     56  C39 UNK     0     -29.248  17.600 -19.233  0.00  0.00    +0.000 C 
BRANCH  56  57
ATOM     57  O14 UNK     0     -29.118  16.276 -19.717  0.00  0.00    +0.000 OA
ATOM     58  H83 UNK     0     -28.271  15.932 -19.387  0.00  0.00    +0.000 HD
ENDBRANCH  56  57
ENDBRANCH  33  56
ENDBRANCH   1  31
TORSDOF 22
