REMARK  7 active torsions:
REMARK  status: ('A' for Active; 'I' for Inactive)
REMARK    1  A    between atoms: N2_1  and  C1_2 
REMARK    2  A    between atoms: C1_2  and  C2_3 
REMARK    3  A    between atoms: C2_3  and  C3_4 
REMARK       I    between atoms: C3_4  and  N1_6 
REMARK    4  A    between atoms: N1_6  and  C4_7 
REMARK    5  A    between atoms: C4_7  and  C13_8 
REMARK    6  A    between atoms: C4_7  and  C5_10 
REMARK    7  A    between atoms: C13_8  and  C7_9 
ROOT
HETATM    1  N2  BES   501      22.729   2.008  27.413  1.00  0.00    -0.079 N 
HETATM    2  H1  BES   501      22.394   1.360  28.196  1.00  0.00     0.274 HD
HETATM    3  H2  BES   501      22.474   1.582  26.465  1.00  0.00     0.274 HD
HETATM    4  H1  BES   501      22.255   2.962  27.514  1.00  0.00     0.274 HD
ENDROOT
BRANCH   1   5
HETATM    5  C1  BES   501      24.193   2.173  27.502  1.00  0.00     0.238 C 
BRANCH   5   6
HETATM    6  C2  BES   501      24.938   0.875  27.444  1.00  0.00     0.123 C 
BRANCH   6   7
HETATM    7  C3  BES   501      26.354   1.143  27.023  1.00  0.00     0.199 C 
HETATM    8  O3  BES   501      26.653   2.289  26.773  1.00  0.00    -0.280 OA
HETATM    9  N1  BES   501      27.300   0.022  26.939  1.00  0.00    -0.248 NA
HETATM   10  H7  BES   501      26.863  -0.673  26.252  1.00  0.00     0.131 HD
BRANCH   9  11
HETATM   11  C4  BES   501      28.700   0.146  26.533  1.00  0.00     0.169 C 
BRANCH  11  12
HETATM   12  C13 BES   501      29.306  -1.248  26.343  1.00  0.00     0.089 C 
BRANCH  12  13
HETATM   13  C7  BES   501      30.793  -1.142  25.956  1.00  0.00     0.031 A 
HETATM   14  C21 BES   501      31.367  -1.243  24.530  1.00  0.00     0.143 A 
HETATM   15  N22 BES   501      32.895  -1.081  24.620  1.00  0.00    -0.254 N 
HETATM   16  C23 BES   501      33.267  -0.879  26.101  1.00  0.00     0.209 A 
HETATM   17  N24 BES   501      31.967  -0.917  26.926  1.00  0.00    -0.348 N 
HETATM   18  C1  BES   501      31.862  -0.760  28.435  1.00  0.00     0.157 C 
ENDBRANCH  12  13
ENDBRANCH  11  12
BRANCH  11  19
HETATM   19  C5  BES   501      28.725   0.859  25.221  1.00  0.00     0.192 C 
HETATM   20  O1  BES   501      27.926   0.508  24.310  1.00  0.00    -0.647 OA
HETATM   21  O4  BES   501      29.535   1.831  25.102  1.00  0.00    -0.647 OA
ENDBRANCH  11  19
ENDBRANCH   9  11
ENDBRANCH   6   7
ENDBRANCH   5   6
ENDBRANCH   1   5
TORSDOF 7
