REMARK  10 active torsions:
REMARK  status: ('A' for Active; 'I' for Inactive)
REMARK    1  A    between atoms: N2_1  and  C1_2 
REMARK    2  A    between atoms: C1_2  and  C6_3 
REMARK    3  A    between atoms: C1_2  and  C2_10 
REMARK    4  A    between atoms: C6_3  and  C7_4 
REMARK    5  A    between atoms: C2_10  and  O2_11 
REMARK    6  A    between atoms: C2_10  and  C3_12 
REMARK       I    between atoms: C3_12  and  N1_14 
REMARK    7  A    between atoms: N1_14  and  C4_15 
REMARK    8  A    between atoms: C4_15  and  C13_16 
REMARK    9  A    between atoms: C4_15  and  C5_20 
REMARK   10  A    between atoms: C13_16  and  C14_17 
ROOT
HETATM    1  N2  BES   501      24.698  -0.747  29.283  1.00  0.00    -0.423 N 
HETATM    2  H1  BES   501      23.677  -0.427  29.277  1.00  0.00     0.150 HD
HETATM    3  H2  BES   501      24.943  -1.748  29.572  1.00  0.00     0.150 HD
ENDROOT
BRANCH   1   4
HETATM    4  C1  BES   501      25.740   0.167  28.904  1.00  0.00     0.116 C 
BRANCH   4   5
HETATM    5  C6  BES   501      25.308   1.485  28.254  1.00  0.00     0.066 C 
BRANCH   5   6
HETATM    6  C7  BES   501      24.051   2.107  28.885  1.00  0.00    -0.056 A 
HETATM    7  C8  BES   501      22.869   2.302  28.136  1.00  0.00     0.007 A 
HETATM    8  C9  BES   501      21.729   2.871  28.745  1.00  0.00     0.001 A 
HETATM    9  C10 BES   501      21.761   3.231  30.089  1.00  0.00     0.000 A 
HETATM   10  C11 BES   501      22.936   3.030  30.836  1.00  0.00     0.001 A 
HETATM   11  C12 BES   501      24.077   2.461  30.229  1.00  0.00     0.007 A 
ENDBRANCH   5   6
ENDBRANCH   4   5
BRANCH   4  12
HETATM   12  C2  BES   501      26.579  -0.552  27.893  1.00  0.00     0.232 C 
BRANCH  12  13
HETATM   13  O2  BES   501      27.150  -1.639  28.499  1.00  0.00    -0.384 OA
HETATM   14  H12 BES   501      27.699  -2.186  27.792  1.00  0.00     0.210 HD
ENDBRANCH  12  13
BRANCH  12  15
HETATM   15  C3  BES   501      27.648   0.376  27.394  1.00  0.00     0.249 C 
HETATM   16  O3  BES   501      28.240   1.038  28.217  1.00  0.00    -0.271 OA
HETATM   17  N1  BES   501      27.926   0.439  25.953  1.00  0.00    -0.344 N 
HETATM   18  H23 BES   501      27.355  -0.196  25.307  1.00  0.00     0.163 HD
BRANCH  17  19
HETATM   19  C4  BES   501      28.930   1.306  25.338  1.00  0.00     0.185 C 
BRANCH  19  20
HETATM   20  C13 BES   501      29.678   0.534  24.246  1.00  0.00     0.040 C 
BRANCH  20  21
HETATM   21  C14 BES   501      30.168  -0.798  24.777  1.00  0.00    -0.020 C 
HETATM   22  C15 BES   501      30.948  -1.521  23.678  1.00  0.00     0.009 C 
HETATM   23  C16 BES   501      31.031  -0.613  25.985  1.00  0.00     0.009 C 
ENDBRANCH  20  21
ENDBRANCH  19  20
BRANCH  19  24
HETATM   24  C5  BES   501      28.208   2.448  24.702  1.00  0.00     0.196 C 
HETATM   25  O1  BES   501      27.219   2.216  23.954  1.00  0.00    -0.646 OA
HETATM   26  O4  BES   501      28.604   3.621  24.991  1.00  0.00    -0.646 OA
ENDBRANCH  19  24
ENDBRANCH  17  19
ENDBRANCH  12  15
ENDBRANCH   4  12
ENDBRANCH   1   4
TORSDOF 10
