REMARK  Name = BCBL.pdb
REMARK  4 active torsions:
REMARK  status: ('A' for Active; 'I' for Inactive)
REMARK    1  A    between atoms: O1_1  and  C6_6
REMARK    2  A    between atoms: O3_3  and  C17_17
REMARK    3  A    between atoms: O4_4  and  C18_18
REMARK    4  A    between atoms: O5_5  and  C21_21
REMARK                            x       y       z     vdW  Elec       q    Type
REMARK                         _______ _______ _______ _____ _____    ______ ____
ROOT
ATOM      1  O2  UNK B   0     -25.186 -64.190  21.987  0.00  0.00    +0.000 OA
ATOM      2  C6  UNK B   0     -25.793 -66.321  20.940  0.00  0.00    +0.000 C 
ATOM      3  C7  UNK B   0     -26.517 -65.594  19.770  0.00  0.00    +0.000 C 
ATOM      4  C8  UNK B   0     -24.363 -66.671  20.460  0.00  0.00    +0.000 C 
ATOM      5  C9  UNK B   0     -25.747 -66.129  18.584  0.00  0.00    +0.000 A 
ATOM      6  C10 UNK B   0     -24.546 -66.728  18.977  0.00  0.00    +0.000 A 
ATOM      7  C11 UNK B   0     -25.786 -65.467  22.202  0.00  0.00    +0.000 C 
ATOM      8  C12 UNK B   0     -26.465 -64.090  19.913  0.00  0.00    +0.000 A 
ATOM      9  C13 UNK B   0     -25.795 -63.481  20.984  0.00  0.00    +0.000 A 
ATOM     10  C14 UNK B   0     -26.110 -66.096  17.245  0.00  0.00    +0.000 A 
ATOM     11  C15 UNK B   0     -23.672 -67.268  18.045  0.00  0.00    +0.000 A 
ATOM     12  C16 UNK B   0     -27.098 -63.264  18.970  0.00  0.00    +0.000 A 
ATOM     13  C17 UNK B   0     -25.241 -66.647  16.300  0.00  0.00    +0.000 A 
ATOM     14  C18 UNK B   0     -24.028 -67.225  16.697  0.00  0.00    +0.000 A 
ATOM     15  C19 UNK B   0     -25.696 -62.089  21.070  0.00  0.00    +0.000 A 
ATOM     16  C20 UNK B   0     -27.018 -61.873  19.068  0.00  0.00    +0.000 A 
ATOM     17  C21 UNK B   0     -26.309 -61.286  20.112  0.00  0.00    +0.000 A 
ENDROOT
BRANCH   2  18
ATOM     18  O1  UNK B   0     -26.492 -67.530  21.258  0.00  0.00    +0.000 OA
ATOM     19  H28 UNK B   0     -26.491 -68.098  20.469  0.00  0.00    +0.000 HD
ENDBRANCH   2  18
BRANCH  13  20
ATOM     20  O3  UNK B   0     -25.587 -66.615  14.981  0.00  0.00    +0.000 OA
ATOM     21  H33 UNK B   0     -25.494 -65.705  14.651  0.00  0.00    +0.000 HD
ENDBRANCH  13  20
BRANCH  14  22
ATOM     22  O4  UNK B   0     -23.183 -67.757  15.769  0.00  0.00    +0.000 OA
ATOM     23  H34 UNK B   0     -23.272 -67.260  14.938  0.00  0.00    +0.000 HD
ENDBRANCH  14  22
BRANCH  17  24
ATOM     24  O5  UNK B   0     -26.223 -59.931  20.201  0.00  0.00    +0.000 OA
ATOM     25  H35 UNK B   0     -26.337 -59.549  19.313  0.00  0.00    +0.000 HD
ENDBRANCH  17  24
TORSDOF 4
