REMARK  7 active torsions:
REMARK  status: ('A' for Active; 'I' for Inactive)
REMARK    1  A    between atoms: N2_1  and  C1_2 
REMARK    2  A    between atoms: C1_2  and  C2_3 
REMARK    3  A    between atoms: C2_3  and  C3_4 
REMARK       I    between atoms: C3_4  and  N1_6 
REMARK    4  A    between atoms: N1_6  and  C4_7 
REMARK    5  A    between atoms: C4_7  and  C13_8 
REMARK    6  A    between atoms: C4_7  and  C5_10 
REMARK    7  A    between atoms: C13_8  and  C7_9 
ROOT
HETATM    1  N2  BES   501      58.112  34.956  23.744  1.00  0.00    -0.079 N 
HETATM    2  H12 BES   501      58.635  35.597  24.422  1.00  0.00     0.274 HD
HETATM    3  H13 BES   501      58.697  34.823  22.858  1.00  0.00     0.274 HD
HETATM    4  H2  BES   501      57.946  34.006  24.207  1.00  0.00     0.274 HD
ENDROOT
BRANCH   1   5
HETATM    5  C1  BES   501      56.849  35.549  23.399  1.00  0.00     0.238 C 
BRANCH   5   6
HETATM    6  C2  BES   501      55.925  35.575  24.597  1.00  0.00     0.123 C 
BRANCH   6   7
HETATM    7  C3  BES   501      54.685  34.745  24.320  1.00  0.00     0.199 C 
HETATM    8  O3  BES   501      54.751  33.528  24.193  1.00  0.00    -0.280 OA
HETATM    9  N1  BES   501      53.402  35.440  24.165  1.00  0.00    -0.248 NA
HETATM   10  H7  BES   501      53.520  36.129  23.355  1.00  0.00     0.131 HD
BRANCH   9  11
HETATM   11  C4  BES   501      52.169  34.673  23.894  1.00  0.00     0.169 C 
BRANCH  11  12
HETATM   12  C13 BES   501      50.931  35.550  24.094  1.00  0.00     0.091 C 
BRANCH  12  13
HETATM   13  C7  BES   501      49.654  34.701  23.957  1.00  0.00     0.053 A 
HETATM   14  C14 BES   501      48.475  34.986  23.007  1.00  0.00     0.116 A 
HETATM   15  N15 BES   501      47.423  33.880  23.208  1.00  0.00    -0.359 N 
HETATM   16  C16 BES   501      47.952  32.910  24.282  1.00  0.00     0.207 A 
HETATM   17  H13 BES   501      46.489  33.798  22.692  1.00  0.00     0.166 HD
HETATM   18  N17 BES   501      49.330  33.418  24.744  1.00  0.00    -0.247 N 
ENDBRANCH  12  13
ENDBRANCH  11  12
BRANCH  11  19
HETATM   19  C5  BES   501      52.220  34.007  22.528  1.00  0.00     0.192 C 
HETATM   20  O1  BES   501      52.987  34.453  21.634  1.00  0.00    -0.647 OA
HETATM   21  O4  BES   501      51.508  32.996  22.284  1.00  0.00    -0.647 OA
ENDBRANCH  11  19
ENDBRANCH   9  11
ENDBRANCH   6   7
ENDBRANCH   5   6
ENDBRANCH   1   5
TORSDOF 7
