REMARK  10 active torsions:
REMARK  status: ('A' for Active; 'I' for Inactive)
REMARK    1  A    between atoms: O1_1  and  C12_12 
REMARK    2  A    between atoms: O2_2  and  C13_13 
REMARK    3  A    between atoms: O3_3  and  C18_18 
REMARK    4  A    between atoms: O4_4  and  C19_19 
REMARK    5  A    between atoms: C7_7  and  C16_16 
REMARK    6  A    between atoms: C8_8  and  C17_17 
REMARK    7  A    between atoms: C9_9  and  C21_21 
REMARK    8  A    between atoms: C9_9  and  C20_20 
REMARK    9  A    between atoms: C20_20  and  C24_24 
REMARK   10  A    between atoms: C21_21  and  C25_25 
ROOT
HETATM    1  O1          0      54.630  15.132 238.278  1.00  0.00    -0.353 OA
HETATM    2  C26         0      54.988  16.350 237.622  1.00  0.00     0.210 C 
ENDROOT
BRANCH   1   3
HETATM    3  C12         0      53.315  15.179 238.789  1.00  0.00     0.102 A 
HETATM    4  C18         0      52.846  14.111 239.428  1.00  0.00     0.099 A 
HETATM    5  C22         0      51.479  14.128 239.972  1.00  0.00     0.040 A 
HETATM    6  C14         0      50.701  15.209 239.833  1.00  0.00     0.014 A 
HETATM    7  C7          0      51.198  16.409 239.128  1.00  0.00    -0.033 A 
HETATM    8  C10         0      52.446  16.391 238.632  1.00  0.00     0.051 A 
BRANCH   4   9
HETATM    9  O3          0      53.665  12.978 239.572  1.00  0.00    -0.358 OA
HETATM   10  H40         0      53.182  12.268 240.065  1.00  0.00     0.217 HD
ENDBRANCH   4   9
BRANCH   7  11
HETATM   11  C16         0      50.317  17.656 238.960  1.00  0.00     0.015 C 
HETATM   12  C24         0      49.052  17.757 239.429  1.00  0.00     0.051 C 
BRANCH  12  13
HETATM   13  C20         0      48.218  19.039 239.227  1.00  0.00     0.156 C 
HETATM   14  O5          0      48.725  19.992 238.623  1.00  0.00    -0.293 OA
BRANCH  13  15
HETATM   15  C9          0      46.740  19.158 239.774  1.00  0.00     0.165 C 
BRANCH  15  16
HETATM   16  C21         0      46.025  20.538 239.483  1.00  0.00     0.156 C 
HETATM   17  O6          0      46.631  21.423 238.867  1.00  0.00    -0.293 OA
BRANCH  16  18
HETATM   18  C25         0      44.581  20.812 239.951  1.00  0.00     0.051 C 
HETATM   19  C17         0      43.971  21.994 239.702  1.00  0.00     0.015 C 
BRANCH  19  20
HETATM   20  C8          0      42.537  22.329 240.140  1.00  0.00    -0.033 A 
HETATM   21  C15         0      41.715  21.351 240.882  1.00  0.00     0.014 A 
HETATM   22  C23         0      40.466  21.656 241.259  1.00  0.00     0.040 A 
HETATM   23  C19         0      39.885  22.970 240.942  1.00  0.00     0.099 A 
HETATM   24  C13         0      40.607  23.866 240.274  1.00  0.00     0.102 A 
HETATM   25  C11         0      42.005  23.528 239.851  1.00  0.00     0.051 A 
BRANCH  23  26
HETATM   26  O4          0      38.575  23.293 241.335  1.00  0.00    -0.358 OA
HETATM   27  H41         0      38.167  22.532 241.819  1.00  0.00     0.217 HD
ENDBRANCH  23  26
BRANCH  24  28
HETATM   28  O2          0      40.021  25.118 239.985  1.00  0.00    -0.353 OA
HETATM   29  C27         0      40.917  25.969 239.266  1.00  0.00     0.210 C 
ENDBRANCH  24  28
ENDBRANCH  19  20
ENDBRANCH  16  18
ENDBRANCH  15  16
ENDBRANCH  13  15
ENDBRANCH  12  13
ENDBRANCH   7  11
ENDBRANCH   1   3
TORSDOF 10
