REMARK  Name = KETCA.pdb
REMARK  8 active torsions:
REMARK  status: ('A' for Active; 'I' for Inactive)
REMARK    1  A    between atoms: O5_5  and  C16_16
REMARK    2  A    between atoms: O5_5  and  C24_24
REMARK    3  A    between atoms: N7_7  and  C21_21
REMARK    4  A    between atoms: N9_9  and  C14_14
REMARK    5  A    between atoms: C11_11  and  C14_14
REMARK    6  A    between atoms: C11_11  and  C15_15
REMARK    7  A    between atoms: C12_12  and  C16_16
REMARK    8  A    between atoms: C25_25  and  C36_36
REMARK                            x       y       z     vdW  Elec       q    Type
REMARK                         _______ _______ _______ _____ _____    ______ ____
ROOT
ATOM      1  O3  UNK K   1     -12.899 -49.416 -20.501  0.00  0.00    +0.000 OA
ATOM      2  O4  UNK K   1     -11.171 -49.202 -18.951  0.00  0.00    +0.000 OA
ATOM      3  C11 UNK K   1     -12.506 -49.757 -19.083  0.00  0.00    +0.000 C 
ATOM      4  C12 UNK K   1     -11.789 -48.587 -21.021  0.00  0.00    +0.000 C 
ATOM      5  C13 UNK K   1     -11.312 -47.940 -19.720  0.00  0.00    +0.000 C 
ENDROOT
BRANCH   3   8
ATOM      6 CL1  UNK K   1     -13.000 -51.978 -21.444  0.00  0.00    +0.000 Cl
ATOM      7 CL2  UNK K   1     -12.876 -55.735 -17.639  0.00  0.00    +0.000 Cl
ATOM      8  C15 UNK K   1     -12.648 -51.325 -18.838  0.00  0.00    +0.000 A 
ATOM      9  C22 UNK K   1     -12.803 -52.290 -19.774  0.00  0.00    +0.000 A 
ATOM     10  C23 UNK K   1     -12.506 -51.759 -17.431  0.00  0.00    +0.000 A 
ATOM     11  C32 UNK K   1     -12.903 -53.709 -19.365  0.00  0.00    +0.000 A 
ATOM     12  C33 UNK K   1     -12.599 -53.042 -17.080  0.00  0.00    +0.000 A 
ATOM     13  C34 UNK K   1     -12.780 -54.064 -18.091  0.00  0.00    +0.000 A 
ENDBRANCH   3   8
BRANCH   3  14
ATOM     14  C14 UNK K   1     -13.426 -48.907 -18.085  0.00  0.00    +0.000 C 
BRANCH  14  15
ATOM     15  N9  UNK K   1     -14.281 -47.846 -18.687  0.00  0.00    +0.000 N 
ATOM     16  N10 UNK K   1     -15.528 -46.843 -20.141  0.00  0.00    +0.000 NA
ATOM     17  C28 UNK K   1     -14.280 -46.500 -18.321  0.00  0.00    +0.000 A 
ATOM     18  C29 UNK K   1     -15.057 -47.994 -19.840  0.00  0.00    +0.000 A 
ATOM     19  C35 UNK K   1     -15.061 -45.880 -19.207  0.00  0.00    +0.000 A 
ENDBRANCH  14  15
ENDBRANCH   3  14
BRANCH   4  20
ATOM     20  C16 UNK K   1     -12.179 -47.619 -22.314  0.00  0.00    +0.000 C 
BRANCH  20  21
ATOM     21  O5  UNK K   1     -13.052 -46.432 -21.968  0.00  0.00    +0.000 OA
BRANCH  21  23
ATOM     22  C21 UNK K   1     -13.941 -43.133 -24.789  0.00  0.00    +0.000 A 
ATOM     23  C24 UNK K   1     -13.324 -45.344 -22.993  0.00  0.00    +0.000 A 
ATOM     24  C26 UNK K   1     -13.151 -44.148 -25.187  0.00  0.00    +0.000 A 
ATOM     25  C27 UNK K   1     -14.485 -43.187 -23.422  0.00  0.00    +0.000 A 
ATOM     26  C30 UNK K   1     -12.832 -45.325 -24.244  0.00  0.00    +0.000 A 
ATOM     27  C31 UNK K   1     -14.194 -44.200 -22.589  0.00  0.00    +0.000 A 
BRANCH  22  29
ATOM     28  O6  UNK K   1     -16.419 -38.468 -28.642  0.00  0.00    +0.000 OA
ATOM     29  N7  UNK K   1     -14.261 -41.971 -25.663  0.00  0.00    +0.000 N 
ATOM     30  N8  UNK K   1     -14.908 -39.785 -27.483  0.00  0.00    +0.000 N 
ATOM     31  C17 UNK K   1     -15.466 -41.177 -25.469  0.00  0.00    +0.000 C 
ATOM     32  C18 UNK K   1     -13.378 -41.624 -26.775  0.00  0.00    +0.000 C 
ATOM     33  C19 UNK K   1     -15.961 -40.542 -26.837  0.00  0.00    +0.000 C 
ATOM     34  C20 UNK K   1     -13.529 -40.109 -27.195  0.00  0.00    +0.000 C 
ATOM     35  C25 UNK K   1     -15.235 -38.730 -28.395  0.00  0.00    +0.000 C 
ATOM     36  C36 UNK K   1     -14.149 -37.905 -29.044  0.00  0.00    +0.000 C 
ENDBRANCH  22  29
ENDBRANCH  21  23
ENDBRANCH  20  21
ENDBRANCH   4  20
TORSDOF 7
