REMARK  2 active torsions:
REMARK  status: ('A' for Active; 'I' for Inactive)
REMARK    1  A    between atoms: C9_9  and  C13_13 
REMARK    2  A    between atoms: C10_10  and  C14_14 
ROOT
HETATM    1  O1          0      44.459  20.180 240.193  1.00  0.00    -0.380 OA
HETATM    2  O2          0      47.865  22.484 239.235  1.00  0.00    -0.380 OA
HETATM    3  C7          0      45.492  21.906 239.065  1.00  0.00     0.052 C 
HETATM    4  C8          0      46.357  20.800 238.777  1.00  0.00     0.052 C 
HETATM    5  C9          0      44.896  21.559 240.460  1.00  0.00     0.161 C 
HETATM    6  C10         0      47.625  21.088 239.631  1.00  0.00     0.161 C 
HETATM    7  C11         0      45.416  19.606 239.124  1.00  0.00     0.176 C 
HETATM    8  C12         0      46.487  23.095 238.897  1.00  0.00     0.176 C 
ENDROOT
BRANCH   5   9
HETATM    9  C13         0      43.728  22.524 240.840  1.00  0.00    -0.026 A 
HETATM   10  C15         0      42.526  21.992 241.156  1.00  0.00     0.049 A 
HETATM   11  C19         0      41.410  22.925 241.402  1.00  0.00     0.105 A 
HETATM   12  O3          0      40.139  22.600 241.726  1.00  0.00    -0.323 OA
HETATM   13  C23         0      41.537  24.195 241.299  1.00  0.00     0.105 A 
HETATM   14  C25         0      39.370  23.821 241.839  1.00  0.00     0.352 A 
HETATM   15  O5          0      40.368  24.823 241.548  1.00  0.00    -0.323 OA
HETATM   16  C21         0      42.805  24.823 240.956  1.00  0.00     0.040 A 
HETATM   17  C17         0      43.857  24.016 240.740  1.00  0.00     0.012 A 
ENDBRANCH   5   9
BRANCH   6  18
HETATM   18  C14         0      48.796  20.122 239.261  1.00  0.00    -0.026 A 
HETATM   19  C18         0      48.610  18.635 239.174  1.00  0.00     0.012 A 
HETATM   20  C22         0      49.596  17.832 238.739  1.00  0.00     0.040 A 
HETATM   21  C24         0      50.855  18.461 238.362  1.00  0.00     0.105 A 
HETATM   22  O6          0      51.958  17.838 237.898  1.00  0.00    -0.323 OA
HETATM   23  C20         0      51.036  19.725 238.441  1.00  0.00     0.105 A 
HETATM   24  C26         0      52.968  18.837 237.644  1.00  0.00     0.352 A 
HETATM   25  O4          0      52.283  20.052 238.031  1.00  0.00    -0.323 OA
HETATM   26  C16         0      49.983  20.654 238.893  1.00  0.00     0.049 A 
ENDBRANCH   6  18
TORSDOF 2
