REMARK  Name = TETCA.pdb
REMARK  10 active torsions:
REMARK  status: ('A' for Active; 'I' for Inactive)
REMARK    1  A    between atoms: O1_1  and  C14_14
REMARK    2  A    between atoms: O2_2  and  C16_16
REMARK    3  A    between atoms: O4_4  and  C19_19
REMARK    4  A    between atoms: O5_5  and  C22_22
REMARK    5  A    between atoms: O7_7  and  C29_29
REMARK    6  A    between atoms: N9_9  and  C15_15
REMARK    7  A    between atoms: N9_9  and  C27_27
REMARK    8  A    between atoms: N9_9  and  C28_28
REMARK    9  A    between atoms: C16_16  and  C25_25
REMARK   10  A    between atoms: C23_23  and  C30_30
REMARK                            x       y       z     vdW  Elec       q    Type
REMARK                         _______ _______ _______ _____ _____    ______ ____
ROOT
ATOM      1  O3  UNK T   1     -15.640 -47.198 -22.465  0.00  0.00    +0.000 OA
ATOM      2  O6  UNK T   1      -9.811 -44.917 -20.598  0.00  0.00    +0.000 OA
ATOM      3  C11 UNK T   1     -13.379 -45.370 -20.306  0.00  0.00    +0.000 C 
ATOM      4  C12 UNK T   1     -14.401 -47.437 -19.213  0.00  0.00    +0.000 C 
ATOM      5  C13 UNK T   1     -13.189 -46.489 -19.237  0.00  0.00    +0.000 C 
ATOM      6  C14 UNK T   1     -13.697 -45.911 -21.726  0.00  0.00    +0.000 C 
ATOM      7  C15 UNK T   1     -12.139 -44.460 -20.317  0.00  0.00    +0.000 C 
ATOM      8  C16 UNK T   1     -14.423 -48.503 -18.078  0.00  0.00    +0.000 C 
ATOM      9  C17 UNK T   1     -14.488 -48.045 -20.579  0.00  0.00    +0.000 C 
ATOM     10  C18 UNK T   1     -14.719 -47.059 -21.666  0.00  0.00    +0.000 C 
ATOM     11  C19 UNK T   1     -12.469 -46.384 -22.483  0.00  0.00    +0.000 C 
ATOM     12  C20 UNK T   1     -13.741 -49.813 -18.470  0.00  0.00    +0.000 A 
ATOM     13  C21 UNK T   1     -10.961 -45.156 -20.969  0.00  0.00    +0.000 C 
ATOM     14  C22 UNK T   1     -14.213 -49.322 -20.879  0.00  0.00    +0.000 C 
ATOM     15  C23 UNK T   1     -11.204 -46.092 -22.116  0.00  0.00    +0.000 C 
ATOM     16  C24 UNK T   1     -13.686 -50.217 -19.824  0.00  0.00    +0.000 A 
ATOM     17  C25 UNK T   1     -15.881 -48.830 -17.700  0.00  0.00    +0.000 C 
ATOM     18  C26 UNK T   1     -13.225 -50.664 -17.473  0.00  0.00    +0.000 A 
ATOM     19  C29 UNK T   1     -13.073 -51.444 -20.136  0.00  0.00    +0.000 A 
ATOM     20  C31 UNK T   1     -12.634 -51.880 -17.804  0.00  0.00    +0.000 A 
ATOM     21  C32 UNK T   1     -12.554 -52.268 -19.135  0.00  0.00    +0.000 A 
ENDROOT
BRANCH  15  24
ATOM     22  O8  UNK T   1      -9.317 -45.952 -23.524  0.00  0.00    +0.000 OA
ATOM     23  N10 UNK T   1      -9.903 -48.008 -22.652  0.00  0.00    +0.000 N 
ATOM     24  C30 UNK T   1     -10.049 -46.656 -22.837  0.00  0.00    +0.000 C 
ATOM     25  H54 UNK T   1      -9.160 -48.547 -23.087  0.00  0.00    +0.000 HD
ATOM     26  H55 UNK T   1     -10.551 -48.525 -22.067  0.00  0.00    +0.000 HD
ENDBRANCH  15  24
BRANCH   7  27
ATOM     27  N9  UNK T   1     -12.347 -43.218 -21.057  0.00  0.00    +0.000 NA
ATOM     28  C27 UNK T   1     -13.320 -42.371 -20.369  0.00  0.00    +0.000 C 
ATOM     29  C28 UNK T   1     -11.080 -42.509 -21.227  0.00  0.00    +0.000 C 
ENDBRANCH   7  27
BRANCH   6  30
ATOM     30  O1  UNK T   1     -14.301 -44.886 -22.515  0.00  0.00    +0.000 OA
ATOM     31  H41 UNK T   1     -15.149 -44.630 -22.115  0.00  0.00    +0.000 HD
ENDBRANCH   6  30
BRANCH   8  32
ATOM     32  O2  UNK T   1     -13.827 -47.934 -16.907  0.00  0.00    +0.000 OA
ATOM     33  H42 UNK T   1     -12.865 -48.064 -16.964  0.00  0.00    +0.000 HD
ENDBRANCH   8  32
BRANCH  11  34
ATOM     34  O4  UNK T   1     -12.786 -47.138 -23.603  0.00  0.00    +0.000 OA
ATOM     35  H50 UNK T   1     -11.974 -47.480 -24.010  0.00  0.00    +0.000 HD
ENDBRANCH  11  34
BRANCH  14  36
ATOM     36  O5  UNK T   1     -14.303 -49.793 -22.174  0.00  0.00    +0.000 OA
ATOM     37  H51 UNK T   1     -14.402 -49.051 -22.791  0.00  0.00    +0.000 HD
ENDBRANCH  14  36
BRANCH  19  38
ATOM     38  O7  UNK T   1     -12.969 -51.921 -21.413  0.00  0.00    +0.000 OA
ATOM     39  H56 UNK T   1     -12.033 -52.030 -21.650  0.00  0.00    +0.000 HD
ENDBRANCH  19  38
TORSDOF 7
