MODEL 1
REMARK VINA RESULT:    -7.424      0.000      0.000
REMARK INTER + INTRA:         -17.298
REMARK INTER:                 -14.152
REMARK INTRA:                  -3.146
REMARK UNBOUND:                -3.146
REMARK  Name = data/B/Ligand/Acarbose.pdb
REMARK  23 active torsions:
REMARK  status: ('A' for Active; 'I' for Inactive)
REMARK    1  A    between atoms: O1_1  and  C22_22
REMARK    2  A    between atoms: O1_1  and  C25_25
REMARK    3  A    between atoms: O4_4  and  C30_30
REMARK    4  A    between atoms: O4_4  and  C32_32
REMARK    5  A    between atoms: O5_5  and  C21_21
REMARK    6  A    between atoms: O6_6  and  C23_23
REMARK    7  A    between atoms: O7_7  and  C26_26
REMARK    8  A    between atoms: O9_9  and  C29_29
REMARK    9  A    between atoms: O10_10  and  C31_31
REMARK   10  A    between atoms: O11_11  and  C33_33
REMARK   11  A    between atoms: O12_12  and  C34_34
REMARK   12  A    between atoms: O13_13  and  C38_38
REMARK   13  A    between atoms: O14_14  and  C39_39
REMARK   14  A    between atoms: O15_15  and  C40_40
REMARK   15  A    between atoms: O16_16  and  C42_42
REMARK   16  A    between atoms: O17_17  and  C43_43
REMARK   17  A    between atoms: O18_18  and  C44_44
REMARK   18  A    between atoms: N19_19  and  C20_20
REMARK   19  A    between atoms: N19_19  and  C28_28
REMARK   20  A    between atoms: C24_24  and  C35_35
REMARK   21  A    between atoms: C27_27  and  C39_39
REMARK   22  A    between atoms: C36_36  and  C43_43
REMARK   23  A    between atoms: C41_41  and  C44_44
REMARK                            x       y       z     vdW  Elec       q    Type
REMARK                         _______ _______ _______ _____ _____    ______ ____
ROOT
ATOM      1  O1  UNK     0       5.568  44.378  20.427  0.00  0.00    +0.000 OA
ENDROOT
BRANCH   1   7
ATOM      2  O2  UNK     0       5.899  43.210  22.430  0.00  0.00    +0.000 OA
ATOM      3  C20 UNK     0       4.184  41.745  23.434  0.00  0.00    +0.000 C 
ATOM      4  C21 UNK     0       3.380  41.833  22.123  0.00  0.00    +0.000 C 
ATOM      5  C23 UNK     0       3.756  43.058  21.285  0.00  0.00    +0.000 C 
ATOM      6  C24 UNK     0       5.686  42.042  23.233  0.00  0.00    +0.000 C 
ATOM      7  C25 UNK     0       5.275  43.182  21.147  0.00  0.00    +0.000 C 
ATOM      8  C35 UNK     0       6.474  40.851  22.684  0.00  0.00    +0.000 C 
BRANCH   4   9
ATOM      9  O5  UNK     0       3.611  40.664  21.336  0.00  0.00    +0.000 OA
ATOM     10  H70 UNK     0       3.495  40.912  20.402  0.00  0.00    +0.000 HD
ENDBRANCH   4   9
BRANCH   5  11
ATOM     11  O6  UNK     0       3.254  44.242  21.905  0.00  0.00    +0.000 OA
ATOM     12  H72 UNK     0       2.385  44.432  21.510  0.00  0.00    +0.000 HD
ENDBRANCH   5  11
BRANCH   3  13
ATOM     13  N19 UNK     0       3.642  42.711  24.400  0.00  0.00    +0.000 NA
ATOM     14  H55 UNK     0       2.626  42.733  24.339  0.00  0.00    +0.000 HD
BRANCH  13  15
ATOM     15  C28 UNK     0       4.068  42.372  25.761  0.00  0.00    +0.000 C 
ATOM     16  C31 UNK     0       3.509  40.997  26.184  0.00  0.00    +0.000 C 
ATOM     17  C33 UNK     0       3.716  40.750  27.685  0.00  0.00    +0.000 C 
ATOM     18  C37 UNK     0       3.728  43.472  26.733  0.00  0.00    +0.000 C 
ATOM     19  C38 UNK     0       3.102  41.866  28.551  0.00  0.00    +0.000 C 
ATOM     20  C41 UNK     0       3.281  43.257  27.984  0.00  0.00    +0.000 C 
BRANCH  16  21
ATOM     21  O10 UNK     0       2.122  40.878  25.870  0.00  0.00    +0.000 OA
ATOM     22  H77 UNK     0       1.894  41.607  25.269  0.00  0.00    +0.000 HD
ENDBRANCH  16  21
BRANCH  17  23
ATOM     23  O11 UNK     0       5.112  40.676  27.970  0.00  0.00    +0.000 OA
ATOM     24  H80 UNK     0       5.592  40.906  27.157  0.00  0.00    +0.000 HD
ENDBRANCH  17  23
BRANCH  19  25
ATOM     25  O13 UNK     0       1.701  41.638  28.704  0.00  0.00    +0.000 OA
ATOM     26  H82 UNK     0       1.235  42.352  28.236  0.00  0.00    +0.000 HD
ENDBRANCH  19  25
BRANCH  20  27
ATOM     27  C44 UNK     0       2.951  44.398  28.903  0.00  0.00    +0.000 C 
BRANCH  27  28
ATOM     28  O18 UNK     0       2.956  45.611  28.175  0.00  0.00    +0.000 OA
ATOM     29  H87 UNK     0       2.040  45.783  27.897  0.00  0.00    +0.000 HD
ENDBRANCH  27  28
ENDBRANCH  20  27
ENDBRANCH  13  15
ENDBRANCH   3  13
ENDBRANCH   1   7
BRANCH   1  31
ATOM     30  O3  UNK     0       8.432  43.656  20.016  0.00  0.00    +0.000 OA
ATOM     31  C22 UNK     0       6.168  44.089  19.160  0.00  0.00    +0.000 C 
ATOM     32  C26 UNK     0       6.656  45.416  18.565  0.00  0.00    +0.000 C 
ATOM     33  C27 UNK     0       7.293  43.064  19.379  0.00  0.00    +0.000 C 
ATOM     34  C29 UNK     0       7.939  45.906  19.242  0.00  0.00    +0.000 C 
ATOM     35  C30 UNK     0       8.977  44.786  19.340  0.00  0.00    +0.000 C 
BRANCH  32  36
ATOM     36  O7  UNK     0       6.911  45.263  17.173  0.00  0.00    +0.000 OA
ATOM     37  H73 UNK     0       6.155  45.640  16.693  0.00  0.00    +0.000 HD
ENDBRANCH  32  36
BRANCH  34  38
ATOM     38  O9  UNK     0       7.633  46.391  20.550  0.00  0.00    +0.000 OA
ATOM     39  H74 UNK     0       7.923  47.317  20.595  0.00  0.00    +0.000 HD
ENDBRANCH  34  38
BRANCH  35  40
ATOM     40  O4  UNK     0      10.114  45.285  20.042  0.00  0.00    +0.000 OA
BRANCH  40  42
ATOM     41  O8  UNK     0      11.644  44.049  23.159  0.00  0.00    +0.000 OA
ATOM     42  C32 UNK     0      10.627  44.316  20.953  0.00  0.00    +0.000 C 
ATOM     43  C34 UNK     0      11.846  43.656  20.305  0.00  0.00    +0.000 C 
ATOM     44  C36 UNK     0      10.999  44.982  22.285  0.00  0.00    +0.000 C 
ATOM     45  C40 UNK     0      12.576  42.770  21.314  0.00  0.00    +0.000 C 
ATOM     46  C42 UNK     0      12.855  43.513  22.621  0.00  0.00    +0.000 C 
BRANCH  43  47
ATOM     47  O12 UNK     0      11.392  42.849  19.216  0.00  0.00    +0.000 OA
ATOM     48  H81 UNK     0      11.999  42.095  19.122  0.00  0.00    +0.000 HD
ENDBRANCH  43  47
BRANCH  45  49
ATOM     49  O15 UNK     0      13.793  42.306  20.740  0.00  0.00    +0.000 OA
ATOM     50  H84 UNK     0      14.501  42.465  21.387  0.00  0.00    +0.000 HD
ENDBRANCH  45  49
BRANCH  46  51
ATOM     51  O16 UNK     0      13.870  44.506  22.481  0.00  0.00    +0.000 OA
ATOM     52  H85 UNK     0      14.176  44.475  21.560  0.00  0.00    +0.000 HD
ENDBRANCH  46  51
BRANCH  44  53
ATOM     53  C43 UNK     0       9.772  45.511  23.024  0.00  0.00    +0.000 C 
BRANCH  53  54
ATOM     54  O17 UNK     0       8.672  44.671  22.728  0.00  0.00    +0.000 OA
ATOM     55  H86 UNK     0       8.914  44.145  21.947  0.00  0.00    +0.000 HD
ENDBRANCH  53  54
ENDBRANCH  44  53
ENDBRANCH  40  42
ENDBRANCH  35  40
BRANCH  33  56
ATOM     56  C39 UNK     0       7.696  42.314  18.111  0.00  0.00    +0.000 C 
BRANCH  56  57
ATOM     57  O14 UNK     0       8.858  41.554  18.387  0.00  0.00    +0.000 OA
ATOM     58  H83 UNK     0       8.959  40.911  17.665  0.00  0.00    +0.000 HD
ENDBRANCH  56  57
ENDBRANCH  33  56
ENDBRANCH   1  31
TORSDOF 22
ENDMDL
MODEL 2
REMARK VINA RESULT:    -7.228      1.755      2.256
REMARK INTER + INTRA:         -16.924
REMARK INTER:                 -14.276
REMARK INTRA:                  -2.647
REMARK UNBOUND:                -3.146
REMARK  Name = data/B/Ligand/Acarbose.pdb
REMARK  23 active torsions:
REMARK  status: ('A' for Active; 'I' for Inactive)
REMARK    1  A    between atoms: O1_1  and  C22_22
REMARK    2  A    between atoms: O1_1  and  C25_25
REMARK    3  A    between atoms: O4_4  and  C30_30
REMARK    4  A    between atoms: O4_4  and  C32_32
REMARK    5  A    between atoms: O5_5  and  C21_21
REMARK    6  A    between atoms: O6_6  and  C23_23
REMARK    7  A    between atoms: O7_7  and  C26_26
REMARK    8  A    between atoms: O9_9  and  C29_29
REMARK    9  A    between atoms: O10_10  and  C31_31
REMARK   10  A    between atoms: O11_11  and  C33_33
REMARK   11  A    between atoms: O12_12  and  C34_34
REMARK   12  A    between atoms: O13_13  and  C38_38
REMARK   13  A    between atoms: O14_14  and  C39_39
REMARK   14  A    between atoms: O15_15  and  C40_40
REMARK   15  A    between atoms: O16_16  and  C42_42
REMARK   16  A    between atoms: O17_17  and  C43_43
REMARK   17  A    between atoms: O18_18  and  C44_44
REMARK   18  A    between atoms: N19_19  and  C20_20
REMARK   19  A    between atoms: N19_19  and  C28_28
REMARK   20  A    between atoms: C24_24  and  C35_35
REMARK   21  A    between atoms: C27_27  and  C39_39
REMARK   22  A    between atoms: C36_36  and  C43_43
REMARK   23  A    between atoms: C41_41  and  C44_44
REMARK                            x       y       z     vdW  Elec       q    Type
REMARK                         _______ _______ _______ _____ _____    ______ ____
ROOT
ATOM      1  O1  UNK     0       5.792  45.358  20.761  0.00  0.00    +0.000 OA
ENDROOT
BRANCH   1   7
ATOM      2  O2  UNK     0       5.904  43.801  22.507  0.00  0.00    +0.000 OA
ATOM      3  C20 UNK     0       3.999  42.375  23.164  0.00  0.00    +0.000 C 
ATOM      4  C21 UNK     0       3.271  42.800  21.875  0.00  0.00    +0.000 C 
ATOM      5  C23 UNK     0       3.813  44.112  21.301  0.00  0.00    +0.000 C 
ATOM      6  C24 UNK     0       5.532  42.533  23.062  0.00  0.00    +0.000 C 
ATOM      7  C25 UNK     0       5.342  44.087  21.228  0.00  0.00    +0.000 C 
ATOM      8  C35 UNK     0       6.215  41.387  22.312  0.00  0.00    +0.000 C 
BRANCH   4   9
ATOM      9  O5  UNK     0       3.414  41.784  20.882  0.00  0.00    +0.000 OA
ATOM     10  H70 UNK     0       3.158  40.938  21.289  0.00  0.00    +0.000 HD
ENDBRANCH   4   9
BRANCH   5  11
ATOM     11  O6  UNK     0       3.410  45.205  22.125  0.00  0.00    +0.000 OA
ATOM     12  H72 UNK     0       3.798  45.065  23.006  0.00  0.00    +0.000 HD
ENDBRANCH   5  11
BRANCH   3  13
ATOM     13  N19 UNK     0       3.519  43.194  24.285  0.00  0.00    +0.000 NA
ATOM     14  H55 UNK     0       2.500  43.220  24.287  0.00  0.00    +0.000 HD
BRANCH  13  15
ATOM     15  C28 UNK     0       4.022  42.671  25.559  0.00  0.00    +0.000 C 
ATOM     16  C31 UNK     0       3.530  41.226  25.791  0.00  0.00    +0.000 C 
ATOM     17  C33 UNK     0       3.819  40.764  27.226  0.00  0.00    +0.000 C 
ATOM     18  C37 UNK     0       3.694  43.597  26.701  0.00  0.00    +0.000 C 
ATOM     19  C38 UNK     0       3.212  41.711  28.278  0.00  0.00    +0.000 C 
ATOM     20  C41 UNK     0       3.317  43.178  27.922  0.00  0.00    +0.000 C 
BRANCH  16  21
ATOM     21  O10 UNK     0       2.134  41.101  25.523  0.00  0.00    +0.000 OA
ATOM     22  H77 UNK     0       2.014  40.328  24.947  0.00  0.00    +0.000 HD
ENDBRANCH  16  21
BRANCH  17  23
ATOM     23  O11 UNK     0       5.229  40.704  27.435  0.00  0.00    +0.000 OA
ATOM     24  H80 UNK     0       5.436  41.258  28.207  0.00  0.00    +0.000 HD
ENDBRANCH  17  23
BRANCH  19  25
ATOM     25  O13 UNK     0       1.828  41.407  28.455  0.00  0.00    +0.000 OA
ATOM     26  H82 UNK     0       1.705  40.466  28.240  0.00  0.00    +0.000 HD
ENDBRANCH  19  25
BRANCH  20  27
ATOM     27  C44 UNK     0       2.995  44.153  29.018  0.00  0.00    +0.000 C 
BRANCH  27  28
ATOM     28  O18 UNK     0       3.023  45.471  28.506  0.00  0.00    +0.000 OA
ATOM     29  H87 UNK     0       2.579  45.452  27.640  0.00  0.00    +0.000 HD
ENDBRANCH  27  28
ENDBRANCH  20  27
ENDBRANCH  13  15
ENDBRANCH   3  13
ENDBRANCH   1   7
BRANCH   1  31
ATOM     30  O3  UNK     0       7.631  43.226  19.777  0.00  0.00    +0.000 OA
ATOM     31  C22 UNK     0       6.309  45.270  19.429  0.00  0.00    +0.000 C 
ATOM     32  C26 UNK     0       7.604  46.089  19.379  0.00  0.00    +0.000 C 
ATOM     33  C27 UNK     0       6.507  43.785  19.083  0.00  0.00    +0.000 C 
ATOM     34  C29 UNK     0       8.768  45.356  20.051  0.00  0.00    +0.000 C 
ATOM     35  C30 UNK     0       8.865  43.908  19.566  0.00  0.00    +0.000 C 
BRANCH  32  36
ATOM     36  O7  UNK     0       7.960  46.358  18.027  0.00  0.00    +0.000 OA
ATOM     37  H73 UNK     0       7.778  45.556  17.510  0.00  0.00    +0.000 HD
ENDBRANCH  32  36
BRANCH  34  38
ATOM     38  O9  UNK     0       8.591  45.376  21.468  0.00  0.00    +0.000 OA
ATOM     39  H74 UNK     0       9.417  45.701  21.862  0.00  0.00    +0.000 HD
ENDBRANCH  34  38
BRANCH  35  40
ATOM     40  O4  UNK     0       9.917  43.263  20.280  0.00  0.00    +0.000 OA
BRANCH  40  42
ATOM     41  O8  UNK     0       9.891  40.310  22.487  0.00  0.00    +0.000 OA
ATOM     42  C32 UNK     0       9.521  41.969  20.732  0.00  0.00    +0.000 C 
ATOM     43  C34 UNK     0       9.941  40.949  19.671  0.00  0.00    +0.000 C 
ATOM     44  C36 UNK     0      10.167  41.657  22.088  0.00  0.00    +0.000 C 
ATOM     45  C40 UNK     0       9.747  39.525  20.191  0.00  0.00    +0.000 C 
ATOM     46  C42 UNK     0      10.386  39.334  21.567  0.00  0.00    +0.000 C 
BRANCH  43  47
ATOM     47  O12 UNK     0       9.120  41.140  18.516  0.00  0.00    +0.000 OA
ATOM     48  H81 UNK     0       9.579  40.758  17.749  0.00  0.00    +0.000 HD
ENDBRANCH  43  47
BRANCH  45  49
ATOM     49  O15 UNK     0      10.301  38.604  19.258  0.00  0.00    +0.000 OA
ATOM     50  H84 UNK     0      10.018  38.881  18.369  0.00  0.00    +0.000 HD
ENDBRANCH  45  49
BRANCH  46  51
ATOM     51  O16 UNK     0      11.812  39.319  21.513  0.00  0.00    +0.000 OA
ATOM     52  H85 UNK     0      12.090  40.129  21.054  0.00  0.00    +0.000 HD
ENDBRANCH  46  51
BRANCH  44  53
ATOM     53  C43 UNK     0       9.642  42.567  23.196  0.00  0.00    +0.000 C 
BRANCH  53  54
ATOM     54  O17 UNK     0      10.333  43.801  23.129  0.00  0.00    +0.000 OA
ATOM     55  H86 UNK     0      11.194  43.672  23.561  0.00  0.00    +0.000 HD
ENDBRANCH  53  54
ENDBRANCH  44  53
ENDBRANCH  40  42
ENDBRANCH  35  40
BRANCH  33  56
ATOM     56  C39 UNK     0       6.590  43.509  17.583  0.00  0.00    +0.000 C 
BRANCH  56  57
ATOM     57  O14 UNK     0       5.855  44.507  16.900  0.00  0.00    +0.000 OA
ATOM     58  H83 UNK     0       5.075  44.711  17.443  0.00  0.00    +0.000 HD
ENDBRANCH  56  57
ENDBRANCH  33  56
ENDBRANCH   1  31
TORSDOF 22
ENDMDL
MODEL 3
REMARK VINA RESULT:    -6.986      2.171      3.309
REMARK INTER + INTRA:         -16.463
REMARK INTER:                 -13.617
REMARK INTRA:                  -2.846
REMARK UNBOUND:                -3.146
REMARK  Name = data/B/Ligand/Acarbose.pdb
REMARK  23 active torsions:
REMARK  status: ('A' for Active; 'I' for Inactive)
REMARK    1  A    between atoms: O1_1  and  C22_22
REMARK    2  A    between atoms: O1_1  and  C25_25
REMARK    3  A    between atoms: O4_4  and  C30_30
REMARK    4  A    between atoms: O4_4  and  C32_32
REMARK    5  A    between atoms: O5_5  and  C21_21
REMARK    6  A    between atoms: O6_6  and  C23_23
REMARK    7  A    between atoms: O7_7  and  C26_26
REMARK    8  A    between atoms: O9_9  and  C29_29
REMARK    9  A    between atoms: O10_10  and  C31_31
REMARK   10  A    between atoms: O11_11  and  C33_33
REMARK   11  A    between atoms: O12_12  and  C34_34
REMARK   12  A    between atoms: O13_13  and  C38_38
REMARK   13  A    between atoms: O14_14  and  C39_39
REMARK   14  A    between atoms: O15_15  and  C40_40
REMARK   15  A    between atoms: O16_16  and  C42_42
REMARK   16  A    between atoms: O17_17  and  C43_43
REMARK   17  A    between atoms: O18_18  and  C44_44
REMARK   18  A    between atoms: N19_19  and  C20_20
REMARK   19  A    between atoms: N19_19  and  C28_28
REMARK   20  A    between atoms: C24_24  and  C35_35
REMARK   21  A    between atoms: C27_27  and  C39_39
REMARK   22  A    between atoms: C36_36  and  C43_43
REMARK   23  A    between atoms: C41_41  and  C44_44
REMARK                            x       y       z     vdW  Elec       q    Type
REMARK                         _______ _______ _______ _____ _____    ______ ____
ROOT
ATOM      1  O1  UNK     0       5.809  44.885  20.912  0.00  0.00    +0.000 OA
ENDROOT
BRANCH   1   7
ATOM      2  O2  UNK     0       5.467  42.756  21.825  0.00  0.00    +0.000 OA
ATOM      3  C20 UNK     0       3.223  41.816  22.246  0.00  0.00    +0.000 C 
ATOM      4  C21 UNK     0       2.616  42.966  21.419  0.00  0.00    +0.000 C 
ATOM      5  C23 UNK     0       3.554  44.172  21.316  0.00  0.00    +0.000 C 
ATOM      6  C24 UNK     0       4.702  41.546  21.893  0.00  0.00    +0.000 C 
ATOM      7  C25 UNK     0       4.965  43.736  20.917  0.00  0.00    +0.000 C 
ATOM      8  C35 UNK     0       4.883  40.713  20.623  0.00  0.00    +0.000 C 
BRANCH   4   9
ATOM      9  O5  UNK     0       2.326  42.510  20.098  0.00  0.00    +0.000 OA
ATOM     10  H70 UNK     0       1.639  43.093  19.731  0.00  0.00    +0.000 HD
ENDBRANCH   4   9
BRANCH   5  11
ATOM     11  O6  UNK     0       3.619  44.845  22.573  0.00  0.00    +0.000 OA
ATOM     12  H72 UNK     0       4.424  45.391  22.570  0.00  0.00    +0.000 HD
ENDBRANCH   5  11
BRANCH   3  13
ATOM     13  N19 UNK     0       3.137  42.148  23.675  0.00  0.00    +0.000 NA
ATOM     14  H55 UNK     0       2.686  43.053  23.795  0.00  0.00    +0.000 HD
BRANCH  13  15
ATOM     15  C28 UNK     0       2.404  41.107  24.402  0.00  0.00    +0.000 C 
ATOM     16  C31 UNK     0       3.298  40.462  25.483  0.00  0.00    +0.000 C 
ATOM     17  C33 UNK     0       2.645  39.200  26.065  0.00  0.00    +0.000 C 
ATOM     18  C37 UNK     0       1.799  40.100  23.459  0.00  0.00    +0.000 C 
ATOM     19  C38 UNK     0       2.294  38.168  24.976  0.00  0.00    +0.000 C 
ATOM     20  C41 UNK     0       1.756  38.777  23.700  0.00  0.00    +0.000 C 
BRANCH  16  21
ATOM     21  O10 UNK     0       4.588  40.134  24.967  0.00  0.00    +0.000 OA
ATOM     22  H77 UNK     0       4.746  39.193  25.150  0.00  0.00    +0.000 HD
ENDBRANCH  16  21
BRANCH  17  23
ATOM     23  O11 UNK     0       1.446  39.555  26.751  0.00  0.00    +0.000 OA
ATOM     24  H80 UNK     0       1.092  38.748  27.163  0.00  0.00    +0.000 HD
ENDBRANCH  17  23
BRANCH  19  25
ATOM     25  O13 UNK     0       3.458  37.414  24.638  0.00  0.00    +0.000 OA
ATOM     26  H82 UNK     0       3.307  37.018  23.763  0.00  0.00    +0.000 HD
ENDBRANCH  19  25
BRANCH  20  27
ATOM     27  C44 UNK     0       1.145  37.823  22.714  0.00  0.00    +0.000 C 
BRANCH  27  28
ATOM     28  O18 UNK     0       2.168  37.112  22.045  0.00  0.00    +0.000 OA
ATOM     29  H87 UNK     0       1.751  36.350  21.608  0.00  0.00    +0.000 HD
ENDBRANCH  27  28
ENDBRANCH  20  27
ENDBRANCH  13  15
ENDBRANCH   3  13
ENDBRANCH   1   7
BRANCH   1  31
ATOM     30  O3  UNK     0       8.357  43.745  19.862  0.00  0.00    +0.000 OA
ATOM     31  C22 UNK     0       6.344  45.134  19.607  0.00  0.00    +0.000 C 
ATOM     32  C26 UNK     0       7.213  46.394  19.694  0.00  0.00    +0.000 C 
ATOM     33  C27 UNK     0       7.118  43.884  19.155  0.00  0.00    +0.000 C 
ATOM     34  C29 UNK     0       8.559  46.113  20.368  0.00  0.00    +0.000 C 
ATOM     35  C30 UNK     0       9.227  44.871  19.774  0.00  0.00    +0.000 C 
BRANCH  32  36
ATOM     36  O7  UNK     0       7.460  46.908  18.390  0.00  0.00    +0.000 OA
ATOM     37  H73 UNK     0       8.392  46.733  18.177  0.00  0.00    +0.000 HD
ENDBRANCH  32  36
BRANCH  34  38
ATOM     38  O9  UNK     0       8.361  45.927  21.770  0.00  0.00    +0.000 OA
ATOM     39  H74 UNK     0       9.172  45.531  22.131  0.00  0.00    +0.000 HD
ENDBRANCH  34  38
BRANCH  35  40
ATOM     40  O4  UNK     0      10.434  44.623  20.492  0.00  0.00    +0.000 OA
BRANCH  40  42
ATOM     41  O8  UNK     0      11.813  41.322  21.381  0.00  0.00    +0.000 OA
ATOM     42  C32 UNK     0      10.911  43.298  20.263  0.00  0.00    +0.000 C 
ATOM     43  C34 UNK     0      12.171  43.391  19.399  0.00  0.00    +0.000 C 
ATOM     44  C36 UNK     0      11.204  42.600  21.597  0.00  0.00    +0.000 C 
ATOM     45  C40 UNK     0      12.857  42.030  19.303  0.00  0.00    +0.000 C 
ATOM     46  C42 UNK     0      13.058  41.399  20.683  0.00  0.00    +0.000 C 
BRANCH  43  47
ATOM     47  O12 UNK     0      11.786  43.814  18.089  0.00  0.00    +0.000 OA
ATOM     48  H81 UNK     0      11.465  44.729  18.146  0.00  0.00    +0.000 HD
ENDBRANCH  43  47
BRANCH  45  49
ATOM     49  O15 UNK     0      14.109  42.178  18.642  0.00  0.00    +0.000 OA
ATOM     50  H84 UNK     0      14.808  42.006  19.297  0.00  0.00    +0.000 HD
ENDBRANCH  45  49
BRANCH  46  51
ATOM     51  O16 UNK     0      14.065  42.060  21.446  0.00  0.00    +0.000 OA
ATOM     52  H85 UNK     0      14.221  42.923  21.029  0.00  0.00    +0.000 HD
ENDBRANCH  46  51
BRANCH  44  53
ATOM     53  C43 UNK     0       9.933  42.356  22.408  0.00  0.00    +0.000 C 
BRANCH  53  54
ATOM     54  O17 UNK     0       9.475  43.598  22.909  0.00  0.00    +0.000 OA
ATOM     55  H86 UNK     0       8.504  43.557  22.934  0.00  0.00    +0.000 HD
ENDBRANCH  53  54
ENDBRANCH  44  53
ENDBRANCH  40  42
ENDBRANCH  35  40
BRANCH  33  56
ATOM     56  C39 UNK     0       7.331  43.806  17.645  0.00  0.00    +0.000 C 
BRANCH  56  57
ATOM     57  O14 UNK     0       6.302  44.540  17.006  0.00  0.00    +0.000 OA
ATOM     58  H83 UNK     0       5.998  45.214  17.636  0.00  0.00    +0.000 HD
ENDBRANCH  56  57
ENDBRANCH  33  56
ENDBRANCH   1  31
TORSDOF 22
ENDMDL
MODEL 4
REMARK VINA RESULT:    -6.871      1.153      1.698
REMARK INTER + INTRA:         -16.244
REMARK INTER:                 -12.934
REMARK INTRA:                  -3.310
REMARK UNBOUND:                -3.146
REMARK  Name = data/B/Ligand/Acarbose.pdb
REMARK  23 active torsions:
REMARK  status: ('A' for Active; 'I' for Inactive)
REMARK    1  A    between atoms: O1_1  and  C22_22
REMARK    2  A    between atoms: O1_1  and  C25_25
REMARK    3  A    between atoms: O4_4  and  C30_30
REMARK    4  A    between atoms: O4_4  and  C32_32
REMARK    5  A    between atoms: O5_5  and  C21_21
REMARK    6  A    between atoms: O6_6  and  C23_23
REMARK    7  A    between atoms: O7_7  and  C26_26
REMARK    8  A    between atoms: O9_9  and  C29_29
REMARK    9  A    between atoms: O10_10  and  C31_31
REMARK   10  A    between atoms: O11_11  and  C33_33
REMARK   11  A    between atoms: O12_12  and  C34_34
REMARK   12  A    between atoms: O13_13  and  C38_38
REMARK   13  A    between atoms: O14_14  and  C39_39
REMARK   14  A    between atoms: O15_15  and  C40_40
REMARK   15  A    between atoms: O16_16  and  C42_42
REMARK   16  A    between atoms: O17_17  and  C43_43
REMARK   17  A    between atoms: O18_18  and  C44_44
REMARK   18  A    between atoms: N19_19  and  C20_20
REMARK   19  A    between atoms: N19_19  and  C28_28
REMARK   20  A    between atoms: C24_24  and  C35_35
REMARK   21  A    between atoms: C27_27  and  C39_39
REMARK   22  A    between atoms: C36_36  and  C43_43
REMARK   23  A    between atoms: C41_41  and  C44_44
REMARK                            x       y       z     vdW  Elec       q    Type
REMARK                         _______ _______ _______ _____ _____    ______ ____
ROOT
ATOM      1  O1  UNK     0       5.618  44.294  20.540  0.00  0.00    +0.000 OA
ENDROOT
BRANCH   1   7
ATOM      2  O2  UNK     0       6.450  43.311  22.495  0.00  0.00    +0.000 OA
ATOM      3  C20 UNK     0       5.151  41.714  23.858  0.00  0.00    +0.000 C 
ATOM      4  C21 UNK     0       4.123  41.615  22.714  0.00  0.00    +0.000 C 
ATOM      5  C23 UNK     0       4.179  42.820  21.771  0.00  0.00    +0.000 C 
ATOM      6  C24 UNK     0       6.540  42.180  23.372  0.00  0.00    +0.000 C 
ATOM      7  C25 UNK     0       5.620  43.121  21.351  0.00  0.00    +0.000 C 
ATOM      8  C35 UNK     0       7.371  41.062  22.739  0.00  0.00    +0.000 C 
BRANCH   4   9
ATOM      9  O5  UNK     0       4.366  40.435  21.948  0.00  0.00    +0.000 OA
ATOM     10  H70 UNK     0       3.816  39.725  22.321  0.00  0.00    +0.000 HD
ENDBRANCH   4   9
BRANCH   5  11
ATOM     11  O6  UNK     0       3.641  43.971  22.421  0.00  0.00    +0.000 OA
ATOM     12  H72 UNK     0       3.495  44.650  21.740  0.00  0.00    +0.000 HD
ENDBRANCH   5  11
BRANCH   3  13
ATOM     13  N19 UNK     0       4.664  42.667  24.865  0.00  0.00    +0.000 NA
ATOM     14  H55 UNK     0       3.856  43.172  24.505  0.00  0.00    +0.000 HD
BRANCH  13  15
ATOM     15  C28 UNK     0       4.324  41.972  26.110  0.00  0.00    +0.000 C 
ATOM     16  C31 UNK     0       3.319  42.798  26.942  0.00  0.00    +0.000 C 
ATOM     17  C33 UNK     0       3.162  42.222  28.357  0.00  0.00    +0.000 C 
ATOM     18  C37 UNK     0       5.561  41.594  26.883  0.00  0.00    +0.000 C 
ATOM     19  C38 UNK     0       4.509  42.114  29.097  0.00  0.00    +0.000 C 
ATOM     20  C41 UNK     0       5.660  41.666  28.223  0.00  0.00    +0.000 C 
BRANCH  16  21
ATOM     21  O10 UNK     0       3.714  44.167  27.029  0.00  0.00    +0.000 OA
ATOM     22  H77 UNK     0       3.188  44.579  27.734  0.00  0.00    +0.000 HD
ENDBRANCH  16  21
BRANCH  17  23
ATOM     23  O11 UNK     0       2.585  40.919  28.282  0.00  0.00    +0.000 OA
ATOM     24  H80 UNK     0       2.580  40.652  27.346  0.00  0.00    +0.000 HD
ENDBRANCH  17  23
BRANCH  19  25
ATOM     25  O13 UNK     0       4.854  43.384  29.650  0.00  0.00    +0.000 OA
ATOM     26  H82 UNK     0       5.612  43.727  29.146  0.00  0.00    +0.000 HD
ENDBRANCH  19  25
BRANCH  20  27
ATOM     27  C44 UNK     0       6.925  41.282  28.936  0.00  0.00    +0.000 C 
BRANCH  27  28
ATOM     28  O18 UNK     0       7.758  42.417  29.070  0.00  0.00    +0.000 OA
ATOM     29  H87 UNK     0       7.216  43.129  29.449  0.00  0.00    +0.000 HD
ENDBRANCH  27  28
ENDBRANCH  20  27
ENDBRANCH  13  15
ENDBRANCH   3  13
ENDBRANCH   1   7
BRANCH   1  31
ATOM     30  O3  UNK     0       8.484  43.630  20.052  0.00  0.00    +0.000 OA
ATOM     31  C22 UNK     0       6.195  44.039  19.254  0.00  0.00    +0.000 C 
ATOM     32  C26 UNK     0       6.647  45.385  18.674  0.00  0.00    +0.000 C 
ATOM     33  C27 UNK     0       7.341  43.029  19.429  0.00  0.00    +0.000 C 
ATOM     34  C29 UNK     0       7.936  45.885  19.331  0.00  0.00    +0.000 C 
ATOM     35  C30 UNK     0       8.995  44.782  19.384  0.00  0.00    +0.000 C 
BRANCH  32  36
ATOM     36  O7  UNK     0       6.872  45.261  17.273  0.00  0.00    +0.000 OA
ATOM     37  H73 UNK     0       6.535  46.068  16.849  0.00  0.00    +0.000 HD
ENDBRANCH  32  36
BRANCH  34  38
ATOM     38  O9  UNK     0       7.651  46.340  20.654  0.00  0.00    +0.000 OA
ATOM     39  H74 UNK     0       6.724  46.119  20.847  0.00  0.00    +0.000 HD
ENDBRANCH  34  38
BRANCH  35  40
ATOM     40  O4  UNK     0      10.138  45.288  20.070  0.00  0.00    +0.000 OA
BRANCH  40  42
ATOM     41  O8  UNK     0      11.700  44.121  23.199  0.00  0.00    +0.000 OA
ATOM     42  C32 UNK     0      10.645  44.338  21.005  0.00  0.00    +0.000 C 
ATOM     43  C34 UNK     0      11.832  43.622  20.358  0.00  0.00    +0.000 C 
ATOM     44  C36 UNK     0      11.062  45.040  22.304  0.00  0.00    +0.000 C 
ATOM     45  C40 UNK     0      12.559  42.753  21.383  0.00  0.00    +0.000 C 
ATOM     46  C42 UNK     0      12.885  43.534  22.657  0.00  0.00    +0.000 C 
BRANCH  43  47
ATOM     47  O12 UNK     0      11.335  42.790  19.308  0.00  0.00    +0.000 OA
ATOM     48  H81 UNK     0      11.083  43.359  18.561  0.00  0.00    +0.000 HD
ENDBRANCH  43  47
BRANCH  45  49
ATOM     49  O15 UNK     0      13.751  42.237  20.802  0.00  0.00    +0.000 OA
ATOM     50  H84 UNK     0      13.839  42.629  19.916  0.00  0.00    +0.000 HD
ENDBRANCH  45  49
BRANCH  46  51
ATOM     51  O16 UNK     0      13.922  44.494  22.461  0.00  0.00    +0.000 OA
ATOM     52  H85 UNK     0      14.262  44.732  23.339  0.00  0.00    +0.000 HD
ENDBRANCH  46  51
BRANCH  44  53
ATOM     53  C43 UNK     0       9.865  45.628  23.048  0.00  0.00    +0.000 C 
BRANCH  53  54
ATOM     54  O17 UNK     0       8.727  44.833  22.769  0.00  0.00    +0.000 OA
ATOM     55  H86 UNK     0       8.004  45.440  22.537  0.00  0.00    +0.000 HD
ENDBRANCH  53  54
ENDBRANCH  44  53
ENDBRANCH  40  42
ENDBRANCH  35  40
BRANCH  33  56
ATOM     56  C39 UNK     0       7.729  42.310  18.139  0.00  0.00    +0.000 C 
BRANCH  56  57
ATOM     57  O14 UNK     0       8.881  41.526  18.388  0.00  0.00    +0.000 OA
ATOM     58  H83 UNK     0       8.804  40.723  17.845  0.00  0.00    +0.000 HD
ENDBRANCH  56  57
ENDBRANCH  33  56
ENDBRANCH   1  31
TORSDOF 22
ENDMDL
MODEL 5
REMARK VINA RESULT:    -6.828      1.234      2.223
REMARK INTER + INTRA:         -16.161
REMARK INTER:                 -12.693
REMARK INTRA:                  -3.468
REMARK UNBOUND:                -3.146
REMARK  Name = data/B/Ligand/Acarbose.pdb
REMARK  23 active torsions:
REMARK  status: ('A' for Active; 'I' for Inactive)
REMARK    1  A    between atoms: O1_1  and  C22_22
REMARK    2  A    between atoms: O1_1  and  C25_25
REMARK    3  A    between atoms: O4_4  and  C30_30
REMARK    4  A    between atoms: O4_4  and  C32_32
REMARK    5  A    between atoms: O5_5  and  C21_21
REMARK    6  A    between atoms: O6_6  and  C23_23
REMARK    7  A    between atoms: O7_7  and  C26_26
REMARK    8  A    between atoms: O9_9  and  C29_29
REMARK    9  A    between atoms: O10_10  and  C31_31
REMARK   10  A    between atoms: O11_11  and  C33_33
REMARK   11  A    between atoms: O12_12  and  C34_34
REMARK   12  A    between atoms: O13_13  and  C38_38
REMARK   13  A    between atoms: O14_14  and  C39_39
REMARK   14  A    between atoms: O15_15  and  C40_40
REMARK   15  A    between atoms: O16_16  and  C42_42
REMARK   16  A    between atoms: O17_17  and  C43_43
REMARK   17  A    between atoms: O18_18  and  C44_44
REMARK   18  A    between atoms: N19_19  and  C20_20
REMARK   19  A    between atoms: N19_19  and  C28_28
REMARK   20  A    between atoms: C24_24  and  C35_35
REMARK   21  A    between atoms: C27_27  and  C39_39
REMARK   22  A    between atoms: C36_36  and  C43_43
REMARK   23  A    between atoms: C41_41  and  C44_44
REMARK                            x       y       z     vdW  Elec       q    Type
REMARK                         _______ _______ _______ _____ _____    ______ ____
ROOT
ATOM      1  O1  UNK     0       5.996  45.008  20.320  0.00  0.00    +0.000 OA
ENDROOT
BRANCH   1   7
ATOM      2  O2  UNK     0       6.065  43.548  22.149  0.00  0.00    +0.000 OA
ATOM      3  C20 UNK     0       4.061  42.423  23.051  0.00  0.00    +0.000 C 
ATOM      4  C21 UNK     0       3.280  42.869  21.799  0.00  0.00    +0.000 C 
ATOM      5  C23 UNK     0       3.931  44.065  21.099  0.00  0.00    +0.000 C 
ATOM      6  C24 UNK     0       5.586  42.372  22.814  0.00  0.00    +0.000 C 
ATOM      7  C25 UNK     0       5.432  43.836  20.904  0.00  0.00    +0.000 C 
ATOM      8  C35 UNK     0       6.049  41.107  22.089  0.00  0.00    +0.000 C 
BRANCH   4   9
ATOM      9  O5  UNK     0       3.205  41.791  20.867  0.00  0.00    +0.000 OA
ATOM     10  H70 UNK     0       4.046  41.765  20.379  0.00  0.00    +0.000 HD
ENDBRANCH   4   9
BRANCH   5  11
ATOM     11  O6  UNK     0       3.745  45.245  21.880  0.00  0.00    +0.000 OA
ATOM     12  H72 UNK     0       4.257  45.958  21.459  0.00  0.00    +0.000 HD
ENDBRANCH   5  11
BRANCH   3  13
ATOM     13  N19 UNK     0       3.789  43.358  24.151  0.00  0.00    +0.000 NA
ATOM     14  H55 UNK     0       3.181  44.108  23.828  0.00  0.00    +0.000 HD
BRANCH  13  15
ATOM     15  C28 UNK     0       3.183  42.656  25.286  0.00  0.00    +0.000 C 
ATOM     16  C31 UNK     0       4.078  42.767  26.540  0.00  0.00    +0.000 C 
ATOM     17  C33 UNK     0       3.599  41.821  27.650  0.00  0.00    +0.000 C 
ATOM     18  C37 UNK     0       2.838  41.234  24.931  0.00  0.00    +0.000 C 
ATOM     19  C38 UNK     0       3.520  40.357  27.177  0.00  0.00    +0.000 C 
ATOM     20  C41 UNK     0       2.997  40.192  25.768  0.00  0.00    +0.000 C 
BRANCH  16  21
ATOM     21  O10 UNK     0       5.444  42.486  26.233  0.00  0.00    +0.000 OA
ATOM     22  H77 UNK     0       5.966  42.662  27.033  0.00  0.00    +0.000 HD
ENDBRANCH  16  21
BRANCH  17  23
ATOM     23  O11 UNK     0       2.304  42.222  28.094  0.00  0.00    +0.000 OA
ATOM     24  H80 UNK     0       1.816  42.552  27.320  0.00  0.00    +0.000 HD
ENDBRANCH  17  23
BRANCH  19  25
ATOM     25  O13 UNK     0       4.818  39.766  27.230  0.00  0.00    +0.000 OA
ATOM     26  H82 UNK     0       4.822  39.013  26.614  0.00  0.00    +0.000 HD
ENDBRANCH  19  25
BRANCH  20  27
ATOM     27  C44 UNK     0       2.640  38.794  25.351  0.00  0.00    +0.000 C 
BRANCH  27  28
ATOM     28  O18 UNK     0       3.774  38.162  24.788  0.00  0.00    +0.000 OA
ATOM     29  H87 UNK     0       3.904  38.541  23.902  0.00  0.00    +0.000 HD
ENDBRANCH  27  28
ENDBRANCH  20  27
ENDBRANCH  13  15
ENDBRANCH   3  13
ENDBRANCH   1   7
BRANCH   1  31
ATOM     30  O3  UNK     0       8.597  43.584  20.009  0.00  0.00    +0.000 OA
ATOM     31  C22 UNK     0       6.627  44.715  19.068  0.00  0.00    +0.000 C 
ATOM     32  C26 UNK     0       7.505  45.918  18.699  0.00  0.00    +0.000 C 
ATOM     33  C27 UNK     0       7.415  43.403  19.219  0.00  0.00    +0.000 C 
ATOM     34  C29 UNK     0       8.794  45.957  19.524  0.00  0.00    +0.000 C 
ATOM     35  C30 UNK     0       9.487  44.592  19.535  0.00  0.00    +0.000 C 
BRANCH  32  36
ATOM     36  O7  UNK     0       7.853  45.862  17.319  0.00  0.00    +0.000 OA
ATOM     37  H73 UNK     0       7.184  45.319  16.869  0.00  0.00    +0.000 HD
ENDBRANCH  32  36
BRANCH  34  38
ATOM     38  O9  UNK     0       8.492  46.352  20.862  0.00  0.00    +0.000 OA
ATOM     39  H74 UNK     0       7.546  46.575  20.896  0.00  0.00    +0.000 HD
ENDBRANCH  34  38
BRANCH  35  40
ATOM     40  O4  UNK     0      10.635  44.678  20.376  0.00  0.00    +0.000 OA
BRANCH  40  42
ATOM     41  O8  UNK     0      11.483  42.709  23.375  0.00  0.00    +0.000 OA
ATOM     42  C32 UNK     0      10.783  43.504  21.173  0.00  0.00    +0.000 C 
ATOM     43  C34 UNK     0      11.833  42.610  20.510  0.00  0.00    +0.000 C 
ATOM     44  C36 UNK     0      11.196  43.880  22.602  0.00  0.00    +0.000 C 
ATOM     45  C40 UNK     0      12.201  41.445  21.427  0.00  0.00    +0.000 C 
ATOM     46  C42 UNK     0      12.549  41.923  22.838  0.00  0.00    +0.000 C 
BRANCH  43  47
ATOM     47  O12 UNK     0      11.280  42.094  19.297  0.00  0.00    +0.000 OA
ATOM     48  H81 UNK     0      11.676  42.577  18.552  0.00  0.00    +0.000 HD
ENDBRANCH  43  47
BRANCH  45  49
ATOM     49  O15 UNK     0      13.296  40.730  20.864  0.00  0.00    +0.000 OA
ATOM     50  H84 UNK     0      13.234  39.809  21.172  0.00  0.00    +0.000 HD
ENDBRANCH  45  49
BRANCH  46  51
ATOM     51  O16 UNK     0      13.802  42.603  22.892  0.00  0.00    +0.000 OA
ATOM     52  H85 UNK     0      13.669  43.482  22.499  0.00  0.00    +0.000 HD
ENDBRANCH  46  51
BRANCH  44  53
ATOM     53  C43 UNK     0      10.095  44.641  23.336  0.00  0.00    +0.000 C 
BRANCH  53  54
ATOM     54  O17 UNK     0       8.842  44.209  22.840  0.00  0.00    +0.000 OA
ATOM     55  H86 UNK     0       8.263  44.065  23.607  0.00  0.00    +0.000 HD
ENDBRANCH  53  54
ENDBRANCH  44  53
ENDBRANCH  40  42
ENDBRANCH  35  40
BRANCH  33  56
ATOM     56  C39 UNK     0       7.736  42.723  17.890  0.00  0.00    +0.000 C 
BRANCH  56  57
ATOM     57  O14 UNK     0       8.577  41.613  18.143  0.00  0.00    +0.000 OA
ATOM     58  H83 UNK     0       8.316  40.908  17.527  0.00  0.00    +0.000 HD
ENDBRANCH  56  57
ENDBRANCH  33  56
ENDBRANCH   1  31
TORSDOF 22
ENDMDL
MODEL 6
REMARK VINA RESULT:    -6.714      2.311      3.483
REMARK INTER + INTRA:         -15.945
REMARK INTER:                 -12.640
REMARK INTRA:                  -3.304
REMARK UNBOUND:                -3.146
REMARK  Name = data/B/Ligand/Acarbose.pdb
REMARK  23 active torsions:
REMARK  status: ('A' for Active; 'I' for Inactive)
REMARK    1  A    between atoms: O1_1  and  C22_22
REMARK    2  A    between atoms: O1_1  and  C25_25
REMARK    3  A    between atoms: O4_4  and  C30_30
REMARK    4  A    between atoms: O4_4  and  C32_32
REMARK    5  A    between atoms: O5_5  and  C21_21
REMARK    6  A    between atoms: O6_6  and  C23_23
REMARK    7  A    between atoms: O7_7  and  C26_26
REMARK    8  A    between atoms: O9_9  and  C29_29
REMARK    9  A    between atoms: O10_10  and  C31_31
REMARK   10  A    between atoms: O11_11  and  C33_33
REMARK   11  A    between atoms: O12_12  and  C34_34
REMARK   12  A    between atoms: O13_13  and  C38_38
REMARK   13  A    between atoms: O14_14  and  C39_39
REMARK   14  A    between atoms: O15_15  and  C40_40
REMARK   15  A    between atoms: O16_16  and  C42_42
REMARK   16  A    between atoms: O17_17  and  C43_43
REMARK   17  A    between atoms: O18_18  and  C44_44
REMARK   18  A    between atoms: N19_19  and  C20_20
REMARK   19  A    between atoms: N19_19  and  C28_28
REMARK   20  A    between atoms: C24_24  and  C35_35
REMARK   21  A    between atoms: C27_27  and  C39_39
REMARK   22  A    between atoms: C36_36  and  C43_43
REMARK   23  A    between atoms: C41_41  and  C44_44
REMARK                            x       y       z     vdW  Elec       q    Type
REMARK                         _______ _______ _______ _____ _____    ______ ____
ROOT
ATOM      1  O1  UNK     0       7.487  45.237  21.392  0.00  0.00    +0.000 OA
ENDROOT
BRANCH   1   7
ATOM      2  O2  UNK     0       6.674  43.346  22.508  0.00  0.00    +0.000 OA
ATOM      3  C20 UNK     0       4.394  43.212  23.446  0.00  0.00    +0.000 C 
ATOM      4  C21 UNK     0       4.033  44.499  22.679  0.00  0.00    +0.000 C 
ATOM      5  C23 UNK     0       5.267  45.321  22.299  0.00  0.00    +0.000 C 
ATOM      6  C24 UNK     0       5.589  42.462  22.819  0.00  0.00    +0.000 C 
ATOM      7  C25 UNK     0       6.336  44.437  21.653  0.00  0.00    +0.000 C 
ATOM      8  C35 UNK     0       5.208  41.616  21.602  0.00  0.00    +0.000 C 
BRANCH   4   9
ATOM      9  O5  UNK     0       3.330  44.167  21.482  0.00  0.00    +0.000 OA
ATOM     10  H70 UNK     0       2.386  44.341  21.639  0.00  0.00    +0.000 HD
ENDBRANCH   4   9
BRANCH   5  11
ATOM     11  O6  UNK     0       5.820  45.933  23.464  0.00  0.00    +0.000 OA
ATOM     12  H72 UNK     0       6.785  45.818  23.424  0.00  0.00    +0.000 HD
ENDBRANCH   5  11
BRANCH   3  13
ATOM     13  N19 UNK     0       4.733  43.554  24.834  0.00  0.00    +0.000 NA
ATOM     14  H55 UNK     0       4.804  44.565  24.937  0.00  0.00    +0.000 HD
BRANCH  13  15
ATOM     15  C28 UNK     0       3.731  43.012  25.757  0.00  0.00    +0.000 C 
ATOM     16  C31 UNK     0       4.395  42.533  27.066  0.00  0.00    +0.000 C 
ATOM     17  C33 UNK     0       3.412  41.723  27.924  0.00  0.00    +0.000 C 
ATOM     18  C37 UNK     0       2.893  41.949  25.096  0.00  0.00    +0.000 C 
ATOM     19  C38 UNK     0       2.815  40.528  27.158  0.00  0.00    +0.000 C 
ATOM     20  C41 UNK     0       2.487  40.823  25.711  0.00  0.00    +0.000 C 
BRANCH  16  21
ATOM     21  O10 UNK     0       5.556  41.745  26.805  0.00  0.00    +0.000 OA
ATOM     22  H77 UNK     0       6.297  42.356  26.658  0.00  0.00    +0.000 HD
ENDBRANCH  16  21
BRANCH  17  23
ATOM     23  O11 UNK     0       2.341  42.566  28.349  0.00  0.00    +0.000 OA
ATOM     24  H80 UNK     0       2.733  43.367  28.736  0.00  0.00    +0.000 HD
ENDBRANCH  17  23
BRANCH  19  25
ATOM     25  O13 UNK     0       3.735  39.437  27.179  0.00  0.00    +0.000 OA
ATOM     26  H82 UNK     0       3.264  38.662  27.530  0.00  0.00    +0.000 HD
ENDBRANCH  19  25
BRANCH  20  27
ATOM     27  C44 UNK     0       1.659  39.796  24.994  0.00  0.00    +0.000 C 
BRANCH  27  28
ATOM     28  O18 UNK     0       1.030  38.950  25.937  0.00  0.00    +0.000 OA
ATOM     29  H87 UNK     0       0.708  38.170  25.454  0.00  0.00    +0.000 HD
ENDBRANCH  27  28
ENDBRANCH  20  27
ENDBRANCH  13  15
ENDBRANCH   3  13
ENDBRANCH   1   7
BRANCH   1  31
ATOM     30  O3  UNK     0       8.647  42.828  20.072  0.00  0.00    +0.000 OA
ATOM     31  C22 UNK     0       7.874  45.161  20.016  0.00  0.00    +0.000 C 
ATOM     32  C26 UNK     0       9.330  45.632  19.916  0.00  0.00    +0.000 C 
ATOM     33  C27 UNK     0       7.661  43.717  19.532  0.00  0.00    +0.000 C 
ATOM     34  C29 UNK     0      10.309  44.567  20.417  0.00  0.00    +0.000 C 
ATOM     35  C30 UNK     0       9.998  43.198  19.807  0.00  0.00    +0.000 C 
BRANCH  32  36
ATOM     36  O7  UNK     0       9.652  45.942  18.564  0.00  0.00    +0.000 OA
ATOM     37  H73 UNK     0       8.818  46.114  18.096  0.00  0.00    +0.000 HD
ENDBRANCH  32  36
BRANCH  34  38
ATOM     38  O9  UNK     0      10.238  44.484  21.840  0.00  0.00    +0.000 OA
ATOM     39  H74 UNK     0      10.041  43.561  22.071  0.00  0.00    +0.000 HD
ENDBRANCH  34  38
BRANCH  35  40
ATOM     40  O4  UNK     0      10.895  42.241  20.367  0.00  0.00    +0.000 OA
BRANCH  40  42
ATOM     41  O8  UNK     0      10.176  39.398  22.601  0.00  0.00    +0.000 OA
ATOM     42  C32 UNK     0      10.198  41.090  20.837  0.00  0.00    +0.000 C 
ATOM     43  C34 UNK     0      10.330  39.992  19.779  0.00  0.00    +0.000 C 
ATOM     44  C36 UNK     0      10.772  40.632  22.185  0.00  0.00    +0.000 C 
ATOM     45  C40 UNK     0       9.798  38.664  20.315  0.00  0.00    +0.000 C 
ATOM     46  C42 UNK     0      10.395  38.326  21.682  0.00  0.00    +0.000 C 
BRANCH  43  47
ATOM     47  O12 UNK     0       9.560  40.377  18.637  0.00  0.00    +0.000 OA
ATOM     48  H81 UNK     0      10.146  40.845  18.019  0.00  0.00    +0.000 HD
ENDBRANCH  43  47
BRANCH  45  49
ATOM     49  O15 UNK     0      10.087  37.629  19.381  0.00  0.00    +0.000 OA
ATOM     50  H84 UNK     0      10.033  36.782  19.856  0.00  0.00    +0.000 HD
ENDBRANCH  45  49
BRANCH  46  51
ATOM     51  O16 UNK     0      11.770  37.955  21.603  0.00  0.00    +0.000 OA
ATOM     52  H85 UNK     0      11.823  37.166  21.038  0.00  0.00    +0.000 HD
ENDBRANCH  46  51
BRANCH  44  53
ATOM     53  C43 UNK     0      10.512  41.650  23.293  0.00  0.00    +0.000 C 
BRANCH  53  54
ATOM     54  O17 UNK     0       9.253  42.254  23.063  0.00  0.00    +0.000 OA
ATOM     55  H86 UNK     0       8.575  41.579  23.232  0.00  0.00    +0.000 HD
ENDBRANCH  53  54
ENDBRANCH  44  53
ENDBRANCH  40  42
ENDBRANCH  35  40
BRANCH  33  56
ATOM     56  C39 UNK     0       7.570  43.585  18.013  0.00  0.00    +0.000 C 
BRANCH  56  57
ATOM     57  O14 UNK     0       7.041  44.789  17.487  0.00  0.00    +0.000 OA
ATOM     58  H83 UNK     0       6.296  45.047  18.055  0.00  0.00    +0.000 HD
ENDBRANCH  56  57
ENDBRANCH  33  56
ENDBRANCH   1  31
TORSDOF 22
ENDMDL
MODEL 7
REMARK VINA RESULT:    -6.472      2.504      8.743
REMARK INTER + INTRA:         -15.484
REMARK INTER:                 -12.127
REMARK INTRA:                  -3.357
REMARK UNBOUND:                -3.146
REMARK  Name = data/B/Ligand/Acarbose.pdb
REMARK  23 active torsions:
REMARK  status: ('A' for Active; 'I' for Inactive)
REMARK    1  A    between atoms: O1_1  and  C22_22
REMARK    2  A    between atoms: O1_1  and  C25_25
REMARK    3  A    between atoms: O4_4  and  C30_30
REMARK    4  A    between atoms: O4_4  and  C32_32
REMARK    5  A    between atoms: O5_5  and  C21_21
REMARK    6  A    between atoms: O6_6  and  C23_23
REMARK    7  A    between atoms: O7_7  and  C26_26
REMARK    8  A    between atoms: O9_9  and  C29_29
REMARK    9  A    between atoms: O10_10  and  C31_31
REMARK   10  A    between atoms: O11_11  and  C33_33
REMARK   11  A    between atoms: O12_12  and  C34_34
REMARK   12  A    between atoms: O13_13  and  C38_38
REMARK   13  A    between atoms: O14_14  and  C39_39
REMARK   14  A    between atoms: O15_15  and  C40_40
REMARK   15  A    between atoms: O16_16  and  C42_42
REMARK   16  A    between atoms: O17_17  and  C43_43
REMARK   17  A    between atoms: O18_18  and  C44_44
REMARK   18  A    between atoms: N19_19  and  C20_20
REMARK   19  A    between atoms: N19_19  and  C28_28
REMARK   20  A    between atoms: C24_24  and  C35_35
REMARK   21  A    between atoms: C27_27  and  C39_39
REMARK   22  A    between atoms: C36_36  and  C43_43
REMARK   23  A    between atoms: C41_41  and  C44_44
REMARK                            x       y       z     vdW  Elec       q    Type
REMARK                         _______ _______ _______ _____ _____    ______ ____
ROOT
ATOM      1  O1  UNK     0       7.693  42.603  25.580  0.00  0.00    +0.000 OA
ENDROOT
BRANCH   1   7
ATOM      2  O2  UNK     0       7.744  42.117  23.291  0.00  0.00    +0.000 OA
ATOM      3  C20 UNK     0       9.806  42.222  21.937  0.00  0.00    +0.000 C 
ATOM      4  C21 UNK     0      10.622  42.336  23.238  0.00  0.00    +0.000 C 
ATOM      5  C23 UNK     0       9.780  42.830  24.417  0.00  0.00    +0.000 C 
ATOM      6  C24 UNK     0       8.425  41.566  22.155  0.00  0.00    +0.000 C 
ATOM      7  C25 UNK     0       8.467  42.050  24.518  0.00  0.00    +0.000 C 
ATOM      8  C35 UNK     0       8.481  40.040  22.240  0.00  0.00    +0.000 C 
BRANCH   4   9
ATOM      9  O5  UNK     0      11.166  41.061  23.580  0.00  0.00    +0.000 OA
ATOM     10  H70 UNK     0      11.206  41.010  24.550  0.00  0.00    +0.000 HD
ENDBRANCH   4   9
BRANCH   5  11
ATOM     11  O6  UNK     0       9.478  44.215  24.251  0.00  0.00    +0.000 OA
ATOM     12  H72 UNK     0       9.866  44.691  25.006  0.00  0.00    +0.000 HD
ENDBRANCH   5  11
BRANCH   3  13
ATOM     13  N19 UNK     0       9.602  43.564  21.373  0.00  0.00    +0.000 NA
ATOM     14  H55 UNK     0      10.453  43.881  20.912  0.00  0.00    +0.000 HD
BRANCH  13  15
ATOM     15  C28 UNK     0       8.477  43.562  20.433  0.00  0.00    +0.000 C 
ATOM     16  C31 UNK     0       8.953  43.198  19.010  0.00  0.00    +0.000 C 
ATOM     17  C33 UNK     0       7.851  43.454  17.973  0.00  0.00    +0.000 C 
ATOM     18  C37 UNK     0       7.715  44.861  20.487  0.00  0.00    +0.000 C 
ATOM     19  C38 UNK     0       7.338  44.907  18.010  0.00  0.00    +0.000 C 
ATOM     20  C41 UNK     0       7.211  45.480  19.404  0.00  0.00    +0.000 C 
BRANCH  16  21
ATOM     21  O10 UNK     0      10.124  43.929  18.648  0.00  0.00    +0.000 OA
ATOM     22  H77 UNK     0      10.340  44.522  19.387  0.00  0.00    +0.000 HD
ENDBRANCH  16  21
BRANCH  17  23
ATOM     23  O11 UNK     0       6.749  42.582  18.220  0.00  0.00    +0.000 OA
ATOM     24  H80 UNK     0       6.203  42.987  18.916  0.00  0.00    +0.000 HD
ENDBRANCH  17  23
BRANCH  19  25
ATOM     25  O13 UNK     0       8.228  45.747  17.276  0.00  0.00    +0.000 OA
ATOM     26  H82 UNK     0       7.712  46.179  16.574  0.00  0.00    +0.000 HD
ENDBRANCH  19  25
BRANCH  20  27
ATOM     27  C44 UNK     0       6.466  46.779  19.523  0.00  0.00    +0.000 C 
BRANCH  27  28
ATOM     28  O18 UNK     0       7.135  47.779  18.779  0.00  0.00    +0.000 OA
ATOM     29  H87 UNK     0       6.521  48.084  18.089  0.00  0.00    +0.000 HD
ENDBRANCH  27  28
ENDBRANCH  20  27
ENDBRANCH  13  15
ENDBRANCH   3  13
ENDBRANCH   1   7
BRANCH   1  31
ATOM     30  O3  UNK     0       5.233  41.258  24.565  0.00  0.00    +0.000 OA
ATOM     31  C22 UNK     0       6.965  41.587  26.279  0.00  0.00    +0.000 C 
ATOM     32  C26 UNK     0       5.935  42.286  27.174  0.00  0.00    +0.000 C 
ATOM     33  C27 UNK     0       6.337  40.642  25.241  0.00  0.00    +0.000 C 
ATOM     34  C29 UNK     0       4.744  42.811  26.368  0.00  0.00    +0.000 C 
ATOM     35  C30 UNK     0       4.200  41.740  25.421  0.00  0.00    +0.000 C 
BRANCH  32  36
ATOM     36  O7  UNK     0       5.449  41.380  28.159  0.00  0.00    +0.000 OA
ATOM     37  H73 UNK     0       6.217  41.042  28.650  0.00  0.00    +0.000 HD
ENDBRANCH  32  36
BRANCH  34  38
ATOM     38  O9  UNK     0       5.144  43.957  25.616  0.00  0.00    +0.000 OA
ATOM     39  H74 UNK     0       4.408  44.592  25.633  0.00  0.00    +0.000 HD
ENDBRANCH  34  38
BRANCH  35  40
ATOM     40  O4  UNK     0       3.144  42.313  24.651  0.00  0.00    +0.000 OA
BRANCH  40  42
ATOM     41  O8  UNK     0       2.942  42.728  20.994  0.00  0.00    +0.000 OA
ATOM     42  C32 UNK     0       3.228  41.921  23.283  0.00  0.00    +0.000 C 
ATOM     43  C34 UNK     0       2.178  40.835  23.036  0.00  0.00    +0.000 C 
ATOM     44  C36 UNK     0       3.000  43.131  22.367  0.00  0.00    +0.000 C 
ATOM     45  C40 UNK     0       2.062  40.530  21.544  0.00  0.00    +0.000 C 
ATOM     46  C42 UNK     0       1.886  41.806  20.718  0.00  0.00    +0.000 C 
BRANCH  43  47
ATOM     47  O12 UNK     0       2.589  39.651  23.725  0.00  0.00    +0.000 OA
ATOM     48  H81 UNK     0       2.541  39.823  24.681  0.00  0.00    +0.000 HD
ENDBRANCH  43  47
BRANCH  45  49
ATOM     49  O15 UNK     0       0.967  39.647  21.328  0.00  0.00    +0.000 OA
ATOM     50  H84 UNK     0       0.878  39.520  20.367  0.00  0.00    +0.000 HD
ENDBRANCH  45  49
BRANCH  46  51
ATOM     51  O16 UNK     0       0.597  42.394  20.887  0.00  0.00    +0.000 OA
ATOM     52  H85 UNK     0       0.480  42.561  21.837  0.00  0.00    +0.000 HD
ENDBRANCH  46  51
BRANCH  44  53
ATOM     53  C43 UNK     0       4.123  44.159  22.484  0.00  0.00    +0.000 C 
BRANCH  53  54
ATOM     54  O17 UNK     0       5.335  43.473  22.739  0.00  0.00    +0.000 OA
ATOM     55  H86 UNK     0       5.963  43.733  22.044  0.00  0.00    +0.000 HD
ENDBRANCH  53  54
ENDBRANCH  44  53
ENDBRANCH  40  42
ENDBRANCH  35  40
BRANCH  33  56
ATOM     56  C39 UNK     0       5.947  39.278  25.808  0.00  0.00    +0.000 C 
BRANCH  56  57
ATOM     57  O14 UNK     0       5.276  38.545  24.799  0.00  0.00    +0.000 OA
ATOM     58  H83 UNK     0       5.007  37.698  25.191  0.00  0.00    +0.000 HD
ENDBRANCH  56  57
ENDBRANCH  33  56
ENDBRANCH   1  31
TORSDOF 22
ENDMDL
MODEL 8
REMARK VINA RESULT:    -6.456      1.793      2.827
REMARK INTER + INTRA:         -15.453
REMARK INTER:                 -12.489
REMARK INTRA:                  -2.965
REMARK UNBOUND:                -3.146
REMARK  Name = data/B/Ligand/Acarbose.pdb
REMARK  23 active torsions:
REMARK  status: ('A' for Active; 'I' for Inactive)
REMARK    1  A    between atoms: O1_1  and  C22_22
REMARK    2  A    between atoms: O1_1  and  C25_25
REMARK    3  A    between atoms: O4_4  and  C30_30
REMARK    4  A    between atoms: O4_4  and  C32_32
REMARK    5  A    between atoms: O5_5  and  C21_21
REMARK    6  A    between atoms: O6_6  and  C23_23
REMARK    7  A    between atoms: O7_7  and  C26_26
REMARK    8  A    between atoms: O9_9  and  C29_29
REMARK    9  A    between atoms: O10_10  and  C31_31
REMARK   10  A    between atoms: O11_11  and  C33_33
REMARK   11  A    between atoms: O12_12  and  C34_34
REMARK   12  A    between atoms: O13_13  and  C38_38
REMARK   13  A    between atoms: O14_14  and  C39_39
REMARK   14  A    between atoms: O15_15  and  C40_40
REMARK   15  A    between atoms: O16_16  and  C42_42
REMARK   16  A    between atoms: O17_17  and  C43_43
REMARK   17  A    between atoms: O18_18  and  C44_44
REMARK   18  A    between atoms: N19_19  and  C20_20
REMARK   19  A    between atoms: N19_19  and  C28_28
REMARK   20  A    between atoms: C24_24  and  C35_35
REMARK   21  A    between atoms: C27_27  and  C39_39
REMARK   22  A    between atoms: C36_36  and  C43_43
REMARK   23  A    between atoms: C41_41  and  C44_44
REMARK                            x       y       z     vdW  Elec       q    Type
REMARK                         _______ _______ _______ _____ _____    ______ ____
ROOT
ATOM      1  O1  UNK     0       3.947  43.827  20.458  0.00  0.00    +0.000 OA
ENDROOT
BRANCH   1   7
ATOM      2  O2  UNK     0       4.484  42.741  22.462  0.00  0.00    +0.000 OA
ATOM      3  C20 UNK     0       3.452  40.608  23.156  0.00  0.00    +0.000 C 
ATOM      4  C21 UNK     0       2.869  40.460  21.738  0.00  0.00    +0.000 C 
ATOM      5  C23 UNK     0       2.786  41.797  20.996  0.00  0.00    +0.000 C 
ATOM      6  C24 UNK     0       4.692  41.528  23.197  0.00  0.00    +0.000 C 
ATOM      7  C25 UNK     0       4.107  42.563  21.098  0.00  0.00    +0.000 C 
ATOM      8  C35 UNK     0       5.981  40.834  22.751  0.00  0.00    +0.000 C 
BRANCH   4   9
ATOM      9  O5  UNK     0       3.682  39.572  20.971  0.00  0.00    +0.000 OA
ATOM     10  H70 UNK     0       4.012  38.883  21.574  0.00  0.00    +0.000 HD
ENDBRANCH   4   9
BRANCH   5  11
ATOM     11  O6  UNK     0       1.746  42.599  21.555  0.00  0.00    +0.000 OA
ATOM     12  H72 UNK     0       2.106  43.031  22.349  0.00  0.00    +0.000 HD
ENDBRANCH   5  11
BRANCH   3  13
ATOM     13  N19 UNK     0       2.426  41.167  24.047  0.00  0.00    +0.000 NA
ATOM     14  H55 UNK     0       1.523  41.175  23.576  0.00  0.00    +0.000 HD
BRANCH  13  15
ATOM     15  C28 UNK     0       2.351  40.398  25.292  0.00  0.00    +0.000 C 
ATOM     16  C31 UNK     0       2.520  41.321  26.518  0.00  0.00    +0.000 C 
ATOM     17  C33 UNK     0       2.714  40.508  27.805  0.00  0.00    +0.000 C 
ATOM     18  C37 UNK     0       3.318  39.243  25.284  0.00  0.00    +0.000 C 
ATOM     19  C38 UNK     0       3.899  39.528  27.705  0.00  0.00    +0.000 C 
ATOM     20  C41 UNK     0       4.029  38.852  26.358  0.00  0.00    +0.000 C 
BRANCH  16  21
ATOM     21  O10 UNK     0       3.622  42.214  26.351  0.00  0.00    +0.000 OA
ATOM     22  H77 UNK     0       3.921  42.141  25.429  0.00  0.00    +0.000 HD
ENDBRANCH  16  21
BRANCH  17  23
ATOM     23  O11 UNK     0       1.532  39.757  28.079  0.00  0.00    +0.000 OA
ATOM     24  H80 UNK     0       0.948  40.314  28.621  0.00  0.00    +0.000 HD
ENDBRANCH  17  23
BRANCH  19  25
ATOM     25  O13 UNK     0       5.119  40.225  27.959  0.00  0.00    +0.000 OA
ATOM     26  H82 UNK     0       4.924  40.937  28.592  0.00  0.00    +0.000 HD
ENDBRANCH  19  25
BRANCH  20  27
ATOM     27  C44 UNK     0       4.985  37.697  26.284  0.00  0.00    +0.000 C 
BRANCH  27  28
ATOM     28  O18 UNK     0       5.742  37.783  25.092  0.00  0.00    +0.000 OA
ATOM     29  H87 UNK     0       5.840  36.878  24.747  0.00  0.00    +0.000 HD
ENDBRANCH  27  28
ENDBRANCH  20  27
ENDBRANCH  13  15
ENDBRANCH   3  13
ENDBRANCH   1   7
BRANCH   1  31
ATOM     30  O3  UNK     0       6.924  43.677  20.547  0.00  0.00    +0.000 OA
ATOM     31  C22 UNK     0       4.810  43.949  19.322  0.00  0.00    +0.000 C 
ATOM     32  C26 UNK     0       5.121  45.439  19.134  0.00  0.00    +0.000 C 
ATOM     33  C27 UNK     0       6.059  43.087  19.568  0.00  0.00    +0.000 C 
ATOM     34  C29 UNK     0       6.137  45.943  20.162  0.00  0.00    +0.000 C 
ATOM     35  C30 UNK     0       7.344  45.007  20.253  0.00  0.00    +0.000 C 
BRANCH  32  36
ATOM     36  O7  UNK     0       5.646  45.667  17.830  0.00  0.00    +0.000 OA
ATOM     37  H73 UNK     0       6.515  46.090  17.933  0.00  0.00    +0.000 HD
ENDBRANCH  32  36
BRANCH  34  38
ATOM     38  O9  UNK     0       5.512  46.045  21.441  0.00  0.00    +0.000 OA
ATOM     39  H74 UNK     0       5.460  45.148  21.814  0.00  0.00    +0.000 HD
ENDBRANCH  34  38
BRANCH  35  40
ATOM     40  O4  UNK     0       8.214  45.492  21.274  0.00  0.00    +0.000 OA
BRANCH  40  42
ATOM     41  O8  UNK     0       9.571  43.599  24.132  0.00  0.00    +0.000 OA
ATOM     42  C32 UNK     0       8.885  44.421  21.935  0.00  0.00    +0.000 C 
ATOM     43  C34 UNK     0      10.344  44.420  21.473  0.00  0.00    +0.000 C 
ATOM     44  C36 UNK     0       8.785  44.588  23.457  0.00  0.00    +0.000 C 
ATOM     45  C40 UNK     0      11.170  43.442  22.308  0.00  0.00    +0.000 C 
ATOM     46  C42 UNK     0      10.962  43.662  23.807  0.00  0.00    +0.000 C 
BRANCH  43  47
ATOM     47  O12 UNK     0      10.379  44.011  20.104  0.00  0.00    +0.000 OA
ATOM     48  H81 UNK     0       9.938  43.147  20.032  0.00  0.00    +0.000 HD
ENDBRANCH  43  47
BRANCH  45  49
ATOM     49  O15 UNK     0      12.546  43.585  21.974  0.00  0.00    +0.000 OA
ATOM     50  H84 UNK     0      12.635  43.419  21.020  0.00  0.00    +0.000 HD
ENDBRANCH  45  49
BRANCH  46  51
ATOM     51  O16 UNK     0      11.571  44.864  24.274  0.00  0.00    +0.000 OA
ATOM     52  H85 UNK     0      12.524  44.789  24.101  0.00  0.00    +0.000 HD
ENDBRANCH  46  51
BRANCH  44  53
ATOM     53  C43 UNK     0       7.351  44.436  23.958  0.00  0.00    +0.000 C 
BRANCH  53  54
ATOM     54  O17 UNK     0       6.702  45.690  23.852  0.00  0.00    +0.000 OA
ATOM     55  H86 UNK     0       5.746  45.518  23.838  0.00  0.00    +0.000 HD
ENDBRANCH  53  54
ENDBRANCH  44  53
ENDBRANCH  40  42
ENDBRANCH  35  40
BRANCH  33  56
ATOM     56  C39 UNK     0       6.825  42.737  18.293  0.00  0.00    +0.000 C 
BRANCH  56  57
ATOM     57  O14 UNK     0       5.907  42.686  17.216  0.00  0.00    +0.000 OA
ATOM     58  H83 UNK     0       5.201  42.068  17.471  0.00  0.00    +0.000 HD
ENDBRANCH  56  57
ENDBRANCH  33  56
ENDBRANCH   1  31
TORSDOF 22
ENDMDL
