MODEL 1
REMARK VINA RESULT:    -8.651      0.000      0.000
REMARK INTER + INTRA:          -9.663
REMARK INTER:                  -9.663
REMARK INTRA:                   0.000
REMARK UNBOUND:                 0.000
REMARK  Name = data/B/Ligand/Hematein.pdb
REMARK  4 active torsions:
REMARK  status: ('A' for Active; 'I' for Inactive)
REMARK    1  A    between atoms: C5_5  and  O19_19
REMARK    2  A    between atoms: C6_6  and  O18_18
REMARK    3  A    between atoms: C7_7  and  O20_20
REMARK    4  A    between atoms: C17_17  and  O21_21
REMARK                            x       y       z     vdW  Elec       q    Type
REMARK                         _______ _______ _______ _____ _____    ______ ____
ROOT
ATOM      1  C1  UNK H   1       5.814  44.469  19.888  0.00  0.00    +0.000 A 
ATOM      2  C2  UNK H   1       4.889  45.427  19.914  0.00  0.00    +0.000 A 
ATOM      3  C3  UNK H   1       7.201  44.797  19.505  0.00  0.00    +0.000 A 
ATOM      4  C4  UNK H   1       5.244  46.800  19.551  0.00  0.00    +0.000 A 
ATOM      5  C5  UNK H   1       7.514  46.045  19.163  0.00  0.00    +0.000 A 
ATOM      6  C6  UNK H   1       6.491  47.091  19.184  0.00  0.00    +0.000 A 
ATOM      7  C7  UNK H   1       6.577  42.059  19.915  0.00  0.00    +0.000 C 
ATOM      8  C8  UNK H   1       5.530  43.060  20.182  0.00  0.00    +0.000 C 
ATOM      9  C9  UNK H   1       7.993  42.570  20.179  0.00  0.00    +0.000 C 
ATOM     10  O10 UNK H   1       8.195  43.818  19.524  0.00  0.00    +0.000 OA
ATOM     11  C11 UNK H   1       6.118  40.765  20.660  0.00  0.00    +0.000 C 
ATOM     12  C12 UNK H   1       4.648  41.067  20.723  0.00  0.00    +0.000 C 
ATOM     13  C13 UNK H   1       4.400  42.456  20.550  0.00  0.00    +0.000 C 
ATOM     14  C14 UNK H   1       3.687  40.210  21.045  0.00  0.00    +0.000 C 
ATOM     15  C15 UNK H   1       2.321  40.737  21.193  0.00  0.00    +0.000 C 
ATOM     16  C16 UNK H   1       3.075  43.026  20.784  0.00  0.00    +0.000 C 
ATOM     17  C17 UNK H   1       2.073  42.197  21.085  0.00  0.00    +0.000 C 
ATOM     18  O22 UNK H   1       1.389  39.971  21.464  0.00  0.00    +0.000 OA
ENDROOT
BRANCH   6  19
ATOM     19  O18 UNK H   1       6.825  48.396  18.837  0.00  0.00    +0.000 OA
ATOM     20  H9  UNK H   1       7.844  48.561  19.034  0.00  0.00    +0.000 HD
ENDBRANCH   6  19
BRANCH   5  21
ATOM     21  O19 UNK H   1       8.821  46.359  18.809  0.00  0.00    +0.000 OA
ATOM     22  H10 UNK H   1       8.865  46.573  17.782  0.00  0.00    +0.000 HD
ENDBRANCH   5  21
BRANCH   7  23
ATOM     23  O20 UNK H   1       6.440  41.820  18.512  0.00  0.00    +0.000 OA
ATOM     24  H11 UNK H   1       6.275  42.730  18.016  0.00  0.00    +0.000 HD
ENDBRANCH   7  23
BRANCH  17  25
ATOM     25  O21 UNK H   1       0.796  42.702  21.297  0.00  0.00    +0.000 OA
ATOM     26  H12 UNK H   1       0.861  43.714  21.569  0.00  0.00    +0.000 HD
ENDBRANCH  17  25
TORSDOF 4
ENDMDL
MODEL 2
REMARK VINA RESULT:    -8.157      3.039      3.511
REMARK INTER + INTRA:          -9.110
REMARK INTER:                  -9.110
REMARK INTRA:                   0.000
REMARK UNBOUND:                 0.000
REMARK  Name = data/B/Ligand/Hematein.pdb
REMARK  4 active torsions:
REMARK  status: ('A' for Active; 'I' for Inactive)
REMARK    1  A    between atoms: C5_5  and  O19_19
REMARK    2  A    between atoms: C6_6  and  O18_18
REMARK    3  A    between atoms: C7_7  and  O20_20
REMARK    4  A    between atoms: C17_17  and  O21_21
REMARK                            x       y       z     vdW  Elec       q    Type
REMARK                         _______ _______ _______ _____ _____    ______ ____
ROOT
ATOM      1  C1  UNK H   1       4.716  44.436  21.130  0.00  0.00    +0.000 A 
ATOM      2  C2  UNK H   1       4.860  45.658  21.643  0.00  0.00    +0.000 A 
ATOM      3  C3  UNK H   1       4.939  44.215  19.687  0.00  0.00    +0.000 A 
ATOM      4  C4  UNK H   1       5.226  46.779  20.777  0.00  0.00    +0.000 A 
ATOM      5  C5  UNK H   1       5.259  45.242  18.903  0.00  0.00    +0.000 A 
ATOM      6  C6  UNK H   1       5.406  46.583  19.472  0.00  0.00    +0.000 A 
ATOM      7  C7  UNK H   1       3.965  42.024  21.205  0.00  0.00    +0.000 C 
ATOM      8  C8  UNK H   1       4.297  43.271  21.916  0.00  0.00    +0.000 C 
ATOM      9  C9  UNK H   1       4.828  41.775  19.970  0.00  0.00    +0.000 C 
ATOM     10  O10 UNK H   1       4.846  42.934  19.142  0.00  0.00    +0.000 OA
ATOM     11  C11 UNK H   1       3.928  40.915  22.305  0.00  0.00    +0.000 C 
ATOM     12  C12 UNK H   1       3.667  41.799  23.491  0.00  0.00    +0.000 C 
ATOM     13  C13 UNK H   1       4.023  43.147  23.215  0.00  0.00    +0.000 C 
ATOM     14  C14 UNK H   1       3.299  41.396  24.701  0.00  0.00    +0.000 C 
ATOM     15  C15 UNK H   1       3.236  42.406  25.769  0.00  0.00    +0.000 C 
ATOM     16  C16 UNK H   1       4.064  44.154  24.273  0.00  0.00    +0.000 C 
ATOM     17  C17 UNK H   1       3.677  43.798  25.500  0.00  0.00    +0.000 C 
ATOM     18  O22 UNK H   1       2.871  42.083  26.904  0.00  0.00    +0.000 OA
ENDROOT
BRANCH   6  19
ATOM     19  O18 UNK H   1       5.751  47.651  18.651  0.00  0.00    +0.000 OA
ATOM     20  H9  UNK H   1       5.122  48.467  18.855  0.00  0.00    +0.000 HD
ENDBRANCH   6  19
BRANCH   5  21
ATOM     21  O19 UNK H   1       5.478  45.035  17.546  0.00  0.00    +0.000 OA
ATOM     22  H10 UNK H   1       6.509  44.962  17.364  0.00  0.00    +0.000 HD
ENDBRANCH   5  21
BRANCH   7  23
ATOM     23  O20 UNK H   1       2.621  42.249  20.776  0.00  0.00    +0.000 OA
ATOM     24  H11 UNK H   1       2.136  41.327  20.643  0.00  0.00    +0.000 HD
ENDBRANCH   7  23
BRANCH  17  25
ATOM     25  O21 UNK H   1       3.686  44.734  26.528  0.00  0.00    +0.000 OA
ATOM     26  H12 UNK H   1       3.233  45.622  26.197  0.00  0.00    +0.000 HD
ENDBRANCH  17  25
TORSDOF 4
ENDMDL
MODEL 3
REMARK VINA RESULT:    -7.963      3.255      4.441
REMARK INTER + INTRA:          -8.894
REMARK INTER:                  -8.894
REMARK INTRA:                   0.000
REMARK UNBOUND:                 0.000
REMARK  Name = data/B/Ligand/Hematein.pdb
REMARK  4 active torsions:
REMARK  status: ('A' for Active; 'I' for Inactive)
REMARK    1  A    between atoms: C5_5  and  O19_19
REMARK    2  A    between atoms: C6_6  and  O18_18
REMARK    3  A    between atoms: C7_7  and  O20_20
REMARK    4  A    between atoms: C17_17  and  O21_21
REMARK                            x       y       z     vdW  Elec       q    Type
REMARK                         _______ _______ _______ _____ _____    ______ ____
ROOT
ATOM      1  C1  UNK H   1       3.638  42.970  22.172  0.00  0.00    +0.000 A 
ATOM      2  C2  UNK H   1       3.340  42.604  20.926  0.00  0.00    +0.000 A 
ATOM      3  C3  UNK H   1       4.474  44.163  22.408  0.00  0.00    +0.000 A 
ATOM      4  C4  UNK H   1       3.853  43.375  19.793  0.00  0.00    +0.000 A 
ATOM      5  C5  UNK H   1       4.948  44.853  21.373  0.00  0.00    +0.000 A 
ATOM      6  C6  UNK H   1       4.625  44.439  20.006  0.00  0.00    +0.000 A 
ATOM      7  C7  UNK H   1       3.776  42.596  24.668  0.00  0.00    +0.000 C 
ATOM      8  C8  UNK H   1       3.212  42.221  23.360  0.00  0.00    +0.000 C 
ATOM      9  C9  UNK H   1       4.018  44.096  24.823  0.00  0.00    +0.000 C 
ATOM     10  O10 UNK H   1       4.750  44.592  23.706  0.00  0.00    +0.000 OA
ATOM     11  C11 UNK H   1       2.871  41.890  25.729  0.00  0.00    +0.000 C 
ATOM     12  C12 UNK H   1       2.333  40.794  24.855  0.00  0.00    +0.000 C 
ATOM     13  C13 UNK H   1       2.466  41.123  23.478  0.00  0.00    +0.000 C 
ATOM     14  C14 UNK H   1       1.676  39.717  25.266  0.00  0.00    +0.000 C 
ATOM     15  C15 UNK H   1       1.101  38.832  24.241  0.00  0.00    +0.000 C 
ATOM     16  C16 UNK H   1       1.825  40.319  22.440  0.00  0.00    +0.000 C 
ATOM     17  C17 UNK H   1       1.176  39.211  22.807  0.00  0.00    +0.000 C 
ATOM     18  O22 UNK H   1       0.507  37.802  24.576  0.00  0.00    +0.000 OA
ENDROOT
BRANCH   6  19
ATOM     19  O18 UNK H   1       5.114  45.169  18.927  0.00  0.00    +0.000 OA
ATOM     20  H9  UNK H   1       4.352  45.294  18.215  0.00  0.00    +0.000 HD
ENDBRANCH   6  19
BRANCH   5  21
ATOM     21  O19 UNK H   1       5.729  45.981  21.591  0.00  0.00    +0.000 OA
ATOM     22  H10 UNK H   1       5.528  46.696  20.848  0.00  0.00    +0.000 HD
ENDBRANCH   5  21
BRANCH   7  23
ATOM     23  O20 UNK H   1       5.042  41.933  24.673  0.00  0.00    +0.000 OA
ATOM     24  H11 UNK H   1       5.806  42.636  24.521  0.00  0.00    +0.000 HD
ENDBRANCH   7  23
BRANCH  17  25
ATOM     25  O21 UNK H   1       0.569  38.413  21.845  0.00  0.00    +0.000 OA
ATOM     26  H12 UNK H   1       0.333  38.996  21.004  0.00  0.00    +0.000 HD
ENDBRANCH  17  25
TORSDOF 4
ENDMDL
MODEL 4
REMARK VINA RESULT:    -7.937      2.870      3.529
REMARK INTER + INTRA:          -8.865
REMARK INTER:                  -8.865
REMARK INTRA:                   0.000
REMARK UNBOUND:                 0.000
REMARK  Name = data/B/Ligand/Hematein.pdb
REMARK  4 active torsions:
REMARK  status: ('A' for Active; 'I' for Inactive)
REMARK    1  A    between atoms: C5_5  and  O19_19
REMARK    2  A    between atoms: C6_6  and  O18_18
REMARK    3  A    between atoms: C7_7  and  O20_20
REMARK    4  A    between atoms: C17_17  and  O21_21
REMARK                            x       y       z     vdW  Elec       q    Type
REMARK                         _______ _______ _______ _____ _____    ______ ____
ROOT
ATOM      1  C1  UNK H   1       4.392  43.714  21.509  0.00  0.00    +0.000 A 
ATOM      2  C2  UNK H   1       3.939  43.342  20.313  0.00  0.00    +0.000 A 
ATOM      3  C3  UNK H   1       5.369  44.816  21.615  0.00  0.00    +0.000 A 
ATOM      4  C4  UNK H   1       4.418  44.016  19.105  0.00  0.00    +0.000 A 
ATOM      5  C5  UNK H   1       5.811  45.415  20.512  0.00  0.00    +0.000 A 
ATOM      6  C6  UNK H   1       5.316  44.995  19.200  0.00  0.00    +0.000 A 
ATOM      7  C7  UNK H   1       4.730  43.409  23.995  0.00  0.00    +0.000 C 
ATOM      8  C8  UNK H   1       4.006  43.056  22.762  0.00  0.00    +0.000 C 
ATOM      9  C9  UNK H   1       5.144  44.878  24.062  0.00  0.00    +0.000 C 
ATOM     10  O10 UNK H   1       5.812  45.254  22.863  0.00  0.00    +0.000 OA
ATOM     11  C11 UNK H   1       3.863  42.841  25.165  0.00  0.00    +0.000 C 
ATOM     12  C12 UNK H   1       3.129  41.783  24.391  0.00  0.00    +0.000 C 
ATOM     13  C13 UNK H   1       3.163  42.050  22.996  0.00  0.00    +0.000 C 
ATOM     14  C14 UNK H   1       2.405  40.798  24.908  0.00  0.00    +0.000 C 
ATOM     15  C15 UNK H   1       1.643  39.949  23.979  0.00  0.00    +0.000 C 
ATOM     16  C16 UNK H   1       2.343  41.288  22.057  0.00  0.00    +0.000 C 
ATOM     17  C17 UNK H   1       1.619  40.271  22.530  0.00  0.00    +0.000 C 
ATOM     18  O22 UNK H   1       0.978  39.001  24.412  0.00  0.00    +0.000 OA
ENDROOT
BRANCH   6  19
ATOM     19  O18 UNK H   1       5.773  45.632  18.050  0.00  0.00    +0.000 OA
ATOM     20  H9  UNK H   1       6.819  45.716  18.089  0.00  0.00    +0.000 HD
ENDBRANCH   6  19
BRANCH   5  21
ATOM     21  O19 UNK H   1       6.724  46.458  20.609  0.00  0.00    +0.000 OA
ATOM     22  H10 UNK H   1       7.318  46.327  21.465  0.00  0.00    +0.000 HD
ENDBRANCH   5  21
BRANCH   7  23
ATOM     23  O20 UNK H   1       5.913  42.612  23.911  0.00  0.00    +0.000 OA
ATOM     24  H11 UNK H   1       5.684  41.617  24.156  0.00  0.00    +0.000 HD
ENDBRANCH   7  23
BRANCH  17  25
ATOM     25  O21 UNK H   1       0.841  39.512  21.663  0.00  0.00    +0.000 OA
ATOM     26  H12 UNK H   1       1.375  39.336  20.776  0.00  0.00    +0.000 HD
ENDBRANCH  17  25
TORSDOF 4
ENDMDL
MODEL 5
REMARK VINA RESULT:    -7.879      3.706      6.460
REMARK INTER + INTRA:          -8.800
REMARK INTER:                  -8.800
REMARK INTRA:                   0.000
REMARK UNBOUND:                 0.000
REMARK  Name = data/B/Ligand/Hematein.pdb
REMARK  4 active torsions:
REMARK  status: ('A' for Active; 'I' for Inactive)
REMARK    1  A    between atoms: C5_5  and  O19_19
REMARK    2  A    between atoms: C6_6  and  O18_18
REMARK    3  A    between atoms: C7_7  and  O20_20
REMARK    4  A    between atoms: C17_17  and  O21_21
REMARK                            x       y       z     vdW  Elec       q    Type
REMARK                         _______ _______ _______ _____ _____    ______ ____
ROOT
ATOM      1  C1  UNK H   1       3.584  43.039  24.173  0.00  0.00    +0.000 A 
ATOM      2  C2  UNK H   1       3.972  44.176  24.752  0.00  0.00    +0.000 A 
ATOM      3  C3  UNK H   1       3.119  41.912  25.006  0.00  0.00    +0.000 A 
ATOM      4  C4  UNK H   1       3.949  44.301  26.210  0.00  0.00    +0.000 A 
ATOM      5  C5  UNK H   1       3.114  42.028  26.331  0.00  0.00    +0.000 A 
ATOM      6  C6  UNK H   1       3.550  43.276  26.961  0.00  0.00    +0.000 A 
ATOM      7  C7  UNK H   1       3.382  41.451  22.218  0.00  0.00    +0.000 C 
ATOM      8  C8  UNK H   1       3.629  42.811  22.725  0.00  0.00    +0.000 C 
ATOM      9  C9  UNK H   1       2.343  40.676  23.027  0.00  0.00    +0.000 C 
ATOM     10  O10 UNK H   1       2.659  40.735  24.414  0.00  0.00    +0.000 OA
ATOM     11  C11 UNK H   1       3.135  41.617  20.684  0.00  0.00    +0.000 C 
ATOM     12  C12 UNK H   1       3.851  42.923  20.493  0.00  0.00    +0.000 C 
ATOM     13  C13 UNK H   1       3.995  43.615  21.726  0.00  0.00    +0.000 C 
ATOM     14  C14 UNK H   1       4.187  43.468  19.330  0.00  0.00    +0.000 C 
ATOM     15  C15 UNK H   1       4.753  44.826  19.349  0.00  0.00    +0.000 C 
ATOM     16  C16 UNK H   1       4.463  44.999  21.771  0.00  0.00    +0.000 C 
ATOM     17  C17 UNK H   1       4.837  45.578  20.627  0.00  0.00    +0.000 C 
ATOM     18  O22 UNK H   1       5.108  45.363  18.294  0.00  0.00    +0.000 OA
ENDROOT
BRANCH   6  19
ATOM     19  O18 UNK H   1       3.532  43.396  28.347  0.00  0.00    +0.000 OA
ATOM     20  H9  UNK H   1       2.746  44.032  28.633  0.00  0.00    +0.000 HD
ENDBRANCH   6  19
BRANCH   5  21
ATOM     21  O19 UNK H   1       2.669  40.972  27.117  0.00  0.00    +0.000 OA
ATOM     22  H10 UNK H   1       2.495  40.132  26.511  0.00  0.00    +0.000 HD
ENDBRANCH   5  21
BRANCH   7  23
ATOM     23  O20 UNK H   1       4.649  40.812  22.383  0.00  0.00    +0.000 OA
ATOM     24  H11 UNK H   1       4.773  40.082  21.639  0.00  0.00    +0.000 HD
ENDBRANCH   7  23
BRANCH  17  25
ATOM     25  O21 UNK H   1       5.303  46.886  20.633  0.00  0.00    +0.000 OA
ATOM     26  H12 UNK H   1       6.351  46.885  20.710  0.00  0.00    +0.000 HD
ENDBRANCH  17  25
TORSDOF 4
ENDMDL
MODEL 6
REMARK VINA RESULT:    -7.636      3.287      4.117
REMARK INTER + INTRA:          -8.529
REMARK INTER:                  -8.529
REMARK INTRA:                   0.000
REMARK UNBOUND:                 0.000
REMARK  Name = data/B/Ligand/Hematein.pdb
REMARK  4 active torsions:
REMARK  status: ('A' for Active; 'I' for Inactive)
REMARK    1  A    between atoms: C5_5  and  O19_19
REMARK    2  A    between atoms: C6_6  and  O18_18
REMARK    3  A    between atoms: C7_7  and  O20_20
REMARK    4  A    between atoms: C17_17  and  O21_21
REMARK                            x       y       z     vdW  Elec       q    Type
REMARK                         _______ _______ _______ _____ _____    ______ ____
ROOT
ATOM      1  C1  UNK H   1       4.266  44.032  21.623  0.00  0.00    +0.000 A 
ATOM      2  C2  UNK H   1       4.762  45.132  22.189  0.00  0.00    +0.000 A 
ATOM      3  C3  UNK H   1       4.272  43.896  20.153  0.00  0.00    +0.000 A 
ATOM      4  C4  UNK H   1       5.299  46.208  21.355  0.00  0.00    +0.000 A 
ATOM      5  C5  UNK H   1       4.750  44.884  19.400  0.00  0.00    +0.000 A 
ATOM      6  C6  UNK H   1       5.285  46.093  20.028  0.00  0.00    +0.000 A 
ATOM      7  C7  UNK H   1       2.953  41.872  21.643  0.00  0.00    +0.000 C 
ATOM      8  C8  UNK H   1       3.658  42.934  22.382  0.00  0.00    +0.000 C 
ATOM      9  C9  UNK H   1       3.591  41.538  20.295  0.00  0.00    +0.000 C 
ATOM     10  O10 UNK H   1       3.807  42.729  19.546  0.00  0.00    +0.000 OA
ATOM     11  C11 UNK H   1       2.761  40.709  22.667  0.00  0.00    +0.000 C 
ATOM     12  C12 UNK H   1       2.855  41.518  23.929  0.00  0.00    +0.000 C 
ATOM     13  C13 UNK H   1       3.502  42.762  23.695  0.00  0.00    +0.000 C 
ATOM     14  C14 UNK H   1       2.530  41.106  25.148  0.00  0.00    +0.000 C 
ATOM     15  C15 UNK H   1       2.834  42.000  26.277  0.00  0.00    +0.000 C 
ATOM     16  C16 UNK H   1       3.904  43.629  24.800  0.00  0.00    +0.000 C 
ATOM     17  C17 UNK H   1       3.574  43.266  26.041  0.00  0.00    +0.000 C 
ATOM     18  O22 UNK H   1       2.523  41.672  27.427  0.00  0.00    +0.000 OA
ENDROOT
BRANCH   6  19
ATOM     19  O18 UNK H   1       5.793  47.119  19.238  0.00  0.00    +0.000 OA
ATOM     20  H9  UNK H   1       5.000  47.635  18.782  0.00  0.00    +0.000 HD
ENDBRANCH   6  19
BRANCH   5  21
ATOM     21  O19 UNK H   1       4.765  44.755  18.016  0.00  0.00    +0.000 OA
ATOM     22  H10 UNK H   1       4.568  45.688  17.575  0.00  0.00    +0.000 HD
ENDBRANCH   5  21
BRANCH   7  23
ATOM     23  O20 UNK H   1       1.669  42.450  21.401  0.00  0.00    +0.000 OA
ATOM     24  H11 UNK H   1       1.545  42.610  20.371  0.00  0.00    +0.000 HD
ENDBRANCH   7  23
BRANCH  17  25
ATOM     25  O21 UNK H   1       3.924  44.075  27.116  0.00  0.00    +0.000 OA
ATOM     26  H12 UNK H   1       3.353  43.809  27.956  0.00  0.00    +0.000 HD
ENDBRANCH  17  25
TORSDOF 4
ENDMDL
MODEL 7
REMARK VINA RESULT:    -7.515      1.607      3.331
REMARK INTER + INTRA:          -8.393
REMARK INTER:                  -8.393
REMARK INTRA:                   0.000
REMARK UNBOUND:                 0.000
REMARK  Name = data/B/Ligand/Hematein.pdb
REMARK  4 active torsions:
REMARK  status: ('A' for Active; 'I' for Inactive)
REMARK    1  A    between atoms: C5_5  and  O19_19
REMARK    2  A    between atoms: C6_6  and  O18_18
REMARK    3  A    between atoms: C7_7  and  O20_20
REMARK    4  A    between atoms: C17_17  and  O21_21
REMARK                            x       y       z     vdW  Elec       q    Type
REMARK                         _______ _______ _______ _____ _____    ______ ____
ROOT
ATOM      1  C1  UNK H   1       6.559  43.556  19.956  0.00  0.00    +0.000 A 
ATOM      2  C2  UNK H   1       7.121  42.411  19.570  0.00  0.00    +0.000 A 
ATOM      3  C3  UNK H   1       7.286  44.828  19.777  0.00  0.00    +0.000 A 
ATOM      4  C4  UNK H   1       8.461  42.413  18.983  0.00  0.00    +0.000 A 
ATOM      5  C5  UNK H   1       8.511  44.821  19.254  0.00  0.00    +0.000 A 
ATOM      6  C6  UNK H   1       9.126  43.559  18.842  0.00  0.00    +0.000 A 
ATOM      7  C7  UNK H   1       4.821  44.924  21.178  0.00  0.00    +0.000 C 
ATOM      8  C8  UNK H   1       5.245  43.636  20.604  0.00  0.00    +0.000 C 
ATOM      9  C9  UNK H   1       5.294  46.137  20.379  0.00  0.00    +0.000 C 
ATOM     10  O10 UNK H   1       6.692  46.041  20.125  0.00  0.00    +0.000 OA
ATOM     11  C11 UNK H   1       3.287  44.778  21.442  0.00  0.00    +0.000 C 
ATOM     12  C12 UNK H   1       3.228  43.279  21.523  0.00  0.00    +0.000 C 
ATOM     13  C13 UNK H   1       4.360  42.685  20.902  0.00  0.00    +0.000 C 
ATOM     14  C14 UNK H   1       2.204  42.561  21.968  0.00  0.00    +0.000 C 
ATOM     15  C15 UNK H   1       2.283  41.098  21.830  0.00  0.00    +0.000 C 
ATOM     16  C16 UNK H   1       4.426  41.245  20.662  0.00  0.00    +0.000 C 
ATOM     17  C17 UNK H   1       3.431  40.481  21.117  0.00  0.00    +0.000 C 
ATOM     18  O22 UNK H   1       1.368  40.386  22.257  0.00  0.00    +0.000 OA
ENDROOT
BRANCH   6  19
ATOM     19  O18 UNK H   1      10.401  43.558  18.286  0.00  0.00    +0.000 OA
ATOM     20  H9  UNK H   1      10.419  42.917  17.453  0.00  0.00    +0.000 HD
ENDBRANCH   6  19
BRANCH   5  21
ATOM     21  O19 UNK H   1       9.195  46.018  19.077  0.00  0.00    +0.000 OA
ATOM     22  H10 UNK H   1       8.796  46.748  19.717  0.00  0.00    +0.000 HD
ENDBRANCH   5  21
BRANCH   7  23
ATOM     23  O20 UNK H   1       5.476  44.939  22.448  0.00  0.00    +0.000 OA
ATOM     24  H11 UNK H   1       5.881  43.991  22.646  0.00  0.00    +0.000 HD
ENDBRANCH   7  23
BRANCH  17  25
ATOM     25  O21 UNK H   1       3.469  39.106  20.922  0.00  0.00    +0.000 OA
ATOM     26  H12 UNK H   1       3.218  38.886  19.926  0.00  0.00    +0.000 HD
ENDBRANCH  17  25
TORSDOF 4
ENDMDL
MODEL 8
REMARK VINA RESULT:    -7.332      3.156      7.306
REMARK INTER + INTRA:          -8.189
REMARK INTER:                  -8.189
REMARK INTRA:                   0.000
REMARK UNBOUND:                 0.000
REMARK  Name = data/B/Ligand/Hematein.pdb
REMARK  4 active torsions:
REMARK  status: ('A' for Active; 'I' for Inactive)
REMARK    1  A    between atoms: C5_5  and  O19_19
REMARK    2  A    between atoms: C6_6  and  O18_18
REMARK    3  A    between atoms: C7_7  and  O20_20
REMARK    4  A    between atoms: C17_17  and  O21_21
REMARK                            x       y       z     vdW  Elec       q    Type
REMARK                         _______ _______ _______ _____ _____    ______ ____
ROOT
ATOM      1  C1  UNK H   1       2.732  41.425  23.845  0.00  0.00    +0.000 A 
ATOM      2  C2  UNK H   1       3.202  41.810  25.031  0.00  0.00    +0.000 A 
ATOM      3  C3  UNK H   1       1.821  40.267  23.756  0.00  0.00    +0.000 A 
ATOM      4  C4  UNK H   1       2.826  41.078  26.242  0.00  0.00    +0.000 A 
ATOM      5  C5  UNK H   1       1.494  39.597  24.859  0.00  0.00    +0.000 A 
ATOM      6  C6  UNK H   1       2.022  40.019  26.158  0.00  0.00    +0.000 A 
ATOM      7  C7  UNK H   1       2.694  41.427  21.318  0.00  0.00    +0.000 C 
ATOM      8  C8  UNK H   1       3.103  42.068  22.579  0.00  0.00    +0.000 C 
ATOM      9  C9  UNK H   1       1.332  40.740  21.394  0.00  0.00    +0.000 C 
ATOM     10  O10 UNK H   1       1.277  39.884  22.530  0.00  0.00    +0.000 OA
ATOM     11  C11 UNK H   1       2.904  42.512  20.213  0.00  0.00    +0.000 C 
ATOM     12  C12 UNK H   1       3.922  43.352  20.929  0.00  0.00    +0.000 C 
ATOM     13  C13 UNK H   1       3.891  43.114  22.330  0.00  0.00    +0.000 C 
ATOM     14  C14 UNK H   1       4.666  44.309  20.388  0.00  0.00    +0.000 C 
ATOM     15  C15 UNK H   1       5.501  45.118  21.290  0.00  0.00    +0.000 C 
ATOM     16  C16 UNK H   1       4.633  43.961  23.261  0.00  0.00    +0.000 C 
ATOM     17  C17 UNK H   1       5.415  44.920  22.759  0.00  0.00    +0.000 C 
ATOM     18  O22 UNK H   1       6.233  46.001  20.828  0.00  0.00    +0.000 OA
ENDROOT
BRANCH   6  19
ATOM     19  O18 UNK H   1       1.669  39.323  27.309  0.00  0.00    +0.000 OA
ATOM     20  H9  UNK H   1       0.672  39.544  27.560  0.00  0.00    +0.000 HD
ENDBRANCH   6  19
BRANCH   5  21
ATOM     21  O19 UNK H   1       0.631  38.511  24.780  0.00  0.00    +0.000 OA
ATOM     22  H10 UNK H   1       1.166  37.624  24.950  0.00  0.00    +0.000 HD
ENDBRANCH   5  21
BRANCH   7  23
ATOM     23  O20 UNK H   1       3.694  40.423  21.130  0.00  0.00    +0.000 OA
ATOM     24  H11 UNK H   1       3.392  39.535  21.602  0.00  0.00    +0.000 HD
ENDBRANCH   7  23
BRANCH  17  25
ATOM     25  O21 UNK H   1       6.149  45.734  23.613  0.00  0.00    +0.000 OA
ATOM     26  H12 UNK H   1       5.569  45.968  24.458  0.00  0.00    +0.000 HD
ENDBRANCH  17  25
TORSDOF 4
ENDMDL
MODEL 9
REMARK VINA RESULT:    -7.315      2.501      6.612
REMARK INTER + INTRA:          -8.170
REMARK INTER:                  -8.170
REMARK INTRA:                   0.000
REMARK UNBOUND:                 0.000
REMARK  Name = data/B/Ligand/Hematein.pdb
REMARK  4 active torsions:
REMARK  status: ('A' for Active; 'I' for Inactive)
REMARK    1  A    between atoms: C5_5  and  O19_19
REMARK    2  A    between atoms: C6_6  and  O18_18
REMARK    3  A    between atoms: C7_7  and  O20_20
REMARK    4  A    between atoms: C17_17  and  O21_21
REMARK                            x       y       z     vdW  Elec       q    Type
REMARK                         _______ _______ _______ _____ _____    ______ ____
ROOT
ATOM      1  C1  UNK H   1       3.375  42.182  22.102  0.00  0.00    +0.000 A 
ATOM      2  C2  UNK H   1       2.745  41.856  20.974  0.00  0.00    +0.000 A 
ATOM      3  C3  UNK H   1       3.022  41.502  23.364  0.00  0.00    +0.000 A 
ATOM      4  C4  UNK H   1       1.697  40.834  20.988  0.00  0.00    +0.000 A 
ATOM      5  C5  UNK H   1       2.059  40.583  23.372  0.00  0.00    +0.000 A 
ATOM      6  C6  UNK H   1       1.365  40.235  22.131  0.00  0.00    +0.000 A 
ATOM      7  C7  UNK H   1       4.866  43.653  23.517  0.00  0.00    +0.000 C 
ATOM      8  C8  UNK H   1       4.395  43.233  22.186  0.00  0.00    +0.000 C 
ATOM      9  C9  UNK H   1       4.936  42.512  24.530  0.00  0.00    +0.000 C 
ATOM     10  O10 UNK H   1       3.708  41.792  24.544  0.00  0.00    +0.000 OA
ATOM     11  C11 UNK H   1       6.166  44.479  23.257  0.00  0.00    +0.000 C 
ATOM     12  C12 UNK H   1       5.887  44.874  21.835  0.00  0.00    +0.000 C 
ATOM     13  C13 UNK H   1       4.921  44.016  21.244  0.00  0.00    +0.000 C 
ATOM     14  C14 UNK H   1       6.540  45.794  21.136  0.00  0.00    +0.000 C 
ATOM     15  C15 UNK H   1       6.212  45.932  19.709  0.00  0.00    +0.000 C 
ATOM     16  C16 UNK H   1       4.641  44.060  19.810  0.00  0.00    +0.000 C 
ATOM     17  C17 UNK H   1       5.256  44.989  19.074  0.00  0.00    +0.000 C 
ATOM     18  O22 UNK H   1       6.773  46.795  19.025  0.00  0.00    +0.000 OA
ENDROOT
BRANCH   6  19
ATOM     19  O18 UNK H   1       0.367  39.267  22.142  0.00  0.00    +0.000 OA
ATOM     20  H9  UNK H   1      -0.570  39.728  22.025  0.00  0.00    +0.000 HD
ENDBRANCH   6  19
BRANCH   5  21
ATOM     21  O19 UNK H   1       1.730  39.934  24.556  0.00  0.00    +0.000 OA
ATOM     22  H10 UNK H   1       0.689  39.956  24.691  0.00  0.00    +0.000 HD
ENDBRANCH   5  21
BRANCH   7  23
ATOM     23  O20 UNK H   1       3.853  44.568  23.941  0.00  0.00    +0.000 OA
ATOM     24  H11 UNK H   1       2.926  44.274  23.544  0.00  0.00    +0.000 HD
ENDBRANCH   7  23
BRANCH  17  25
ATOM     25  O21 UNK H   1       5.001  45.072  17.710  0.00  0.00    +0.000 OA
ATOM     26  H12 UNK H   1       4.136  44.523  17.481  0.00  0.00    +0.000 HD
ENDBRANCH  17  25
TORSDOF 4
ENDMDL
