MODEL 1
REMARK VINA RESULT:    -6.540      0.000      0.000
REMARK INTER + INTRA:          -9.700
REMARK INTER:                  -9.025
REMARK INTRA:                  -0.675
REMARK UNBOUND:                -0.675
REMARK  Name = data/D/Ligand/Carnosine.pdb
REMARK  7 active torsions:
REMARK  status: ('A' for Active; 'I' for Inactive)
REMARK    1  A    between atoms: N2_1  and  C1_2
REMARK    2  A    between atoms: C1_2  and  C2_3
REMARK    3  A    between atoms: C2_3  and  C3_4
REMARK    4  A    between atoms: N1_6  and  C4_7
REMARK    5  A    between atoms: C4_7  and  C13_8
REMARK    6  A    between atoms: C4_7  and  C5_10
REMARK    7  A    between atoms: C13_8  and  C7_9
REMARK                            x       y       z     vdW  Elec       q    Type
REMARK                         _______ _______ _______ _____ _____    ______ ____
ROOT
ATOM      1  C4  BES   501      27.878   1.082  26.603  0.00  0.00    +0.000 C 
ENDROOT
BRANCH   1   4
ATOM      2  C3  BES   501      25.774   1.339  28.025  0.00  0.00    +0.000 C 
ATOM      3  O3  BES   501      26.209   2.382  28.498  0.00  0.00    +0.000 OA
ATOM      4  N1  BES   501      26.548   0.597  27.023  0.00  0.00    +0.000 N 
ATOM      5  H7  BES   501      25.945   0.551  26.140  0.00  0.00    +0.000 HD
BRANCH   2   6
ATOM      6  C2  BES   501      24.412   0.802  28.425  0.00  0.00    +0.000 C 
BRANCH   6   7
ATOM      7  C1  BES   501      23.642   1.854  29.193  0.00  0.00    +0.000 C 
BRANCH   7   8
ATOM      8  N2  BES   501      24.203   2.040  30.503  0.00  0.00    +0.000 N 
ATOM      9  H12 BES   501      25.193   2.435  30.415  0.00  0.00    +0.000 HD
ATOM     10  H13 BES   501      24.238   1.100  31.012  0.00  0.00    +0.000 HD
ATOM     11  H2  BES   501      23.594   2.723  31.058  0.00  0.00    +0.000 HD
ENDBRANCH   7   8
ENDBRANCH   6   7
ENDBRANCH   2   6
ENDBRANCH   1   4
BRANCH   1  12
ATOM     12  C5  BES   501      28.057   0.976  25.096  0.00  0.00    +0.000 C 
ATOM     13  O1  BES   501      27.057   1.051  24.333  0.00  0.00    +0.000 OA
ATOM     14  O4  BES   501      29.205   0.827  24.599  0.00  0.00    +0.000 OA
ENDBRANCH   1  12
BRANCH   1  15
ATOM     15  C13 BES   501      28.985   0.381  27.394  0.00  0.00    +0.000 C 
BRANCH  15  16
ATOM     16  C7  BES   501      29.940   1.423  28.004  0.00  0.00    +0.000 A 
ATOM     17  C14 BES   501      30.775   1.244  29.287  0.00  0.00    +0.000 A 
ATOM     18  N15 BES   501      31.579   2.537  29.516  0.00  0.00    +0.000 N 
ATOM     19  C16 BES   501      31.242   3.515  28.374  0.00  0.00    +0.000 A 
ATOM     20  N17 BES   501      30.230   2.826  27.441  0.00  0.00    +0.000 NA
ATOM     21  H13 BES   501      32.254   2.723  30.325  0.00  0.00    +0.000 HD
ENDBRANCH  15  16
ENDBRANCH   1  15
TORSDOF 7
ENDMDL
MODEL 2
REMARK VINA RESULT:    -6.384      1.050      1.160
REMARK INTER + INTRA:          -9.485
REMARK INTER:                  -8.865
REMARK INTRA:                  -0.620
REMARK UNBOUND:                -0.675
REMARK  Name = data/D/Ligand/Carnosine.pdb
REMARK  7 active torsions:
REMARK  status: ('A' for Active; 'I' for Inactive)
REMARK    1  A    between atoms: N2_1  and  C1_2
REMARK    2  A    between atoms: C1_2  and  C2_3
REMARK    3  A    between atoms: C2_3  and  C3_4
REMARK    4  A    between atoms: N1_6  and  C4_7
REMARK    5  A    between atoms: C4_7  and  C13_8
REMARK    6  A    between atoms: C4_7  and  C5_10
REMARK    7  A    between atoms: C13_8  and  C7_9
REMARK                            x       y       z     vdW  Elec       q    Type
REMARK                         _______ _______ _______ _____ _____    ______ ____
ROOT
ATOM      1  C4  BES   501      27.724   1.008  26.807  0.00  0.00    +0.000 C 
ENDROOT
BRANCH   1   4
ATOM      2  C3  BES   501      25.669   1.182  28.311  0.00  0.00    +0.000 C 
ATOM      3  O3  BES   501      26.355   1.653  29.210  0.00  0.00    +0.000 OA
ATOM      4  N1  BES   501      26.273   0.832  27.021  0.00  0.00    +0.000 N 
ATOM      5  H7  BES   501      25.779   1.423  26.278  0.00  0.00    +0.000 HD
BRANCH   2   6
ATOM      6  C2  BES   501      24.174   0.985  28.484  0.00  0.00    +0.000 C 
BRANCH   6   7
ATOM      7  C1  BES   501      23.569   2.176  29.195  0.00  0.00    +0.000 C 
BRANCH   7   8
ATOM      8  N2  BES   501      23.979   2.208  30.572  0.00  0.00    +0.000 N 
ATOM      9  H12 BES   501      24.859   1.612  30.697  0.00  0.00    +0.000 HD
ATOM     10  H13 BES   501      23.195   1.816  31.186  0.00  0.00    +0.000 HD
ATOM     11  H2  BES   501      24.187   3.217  30.860  0.00  0.00    +0.000 HD
ENDBRANCH   7   8
ENDBRANCH   6   7
ENDBRANCH   2   6
ENDBRANCH   1   4
BRANCH   1  12
ATOM     12  C5  BES   501      28.033   1.352  25.359  0.00  0.00    +0.000 C 
ATOM     13  O1  BES   501      27.289   0.930  24.435  0.00  0.00    +0.000 OA
ATOM     14  O4  BES   501      29.026   2.074  25.072  0.00  0.00    +0.000 OA
ENDBRANCH   1  12
BRANCH   1  15
ATOM     15  C13 BES   501      28.498  -0.210  27.318  0.00  0.00    +0.000 C 
BRANCH  15  16
ATOM     16  C7  BES   501      29.723   0.246  28.132  0.00  0.00    +0.000 A 
ATOM     17  C14 BES   501      30.743  -0.677  28.825  0.00  0.00    +0.000 A 
ATOM     18  N15 BES   501      31.794   0.209  29.518  0.00  0.00    +0.000 N 
ATOM     19  C16 BES   501      31.425   1.681  29.251  0.00  0.00    +0.000 A 
ATOM     20  N17 BES   501      30.145   1.703  28.395  0.00  0.00    +0.000 NA
ATOM     21  H13 BES   501      32.635  -0.135  30.083  0.00  0.00    +0.000 HD
ENDBRANCH  15  16
ENDBRANCH   1  15
TORSDOF 7
ENDMDL
MODEL 3
REMARK VINA RESULT:    -5.908      3.622      5.439
REMARK INTER + INTRA:          -8.828
REMARK INTER:                  -8.424
REMARK INTRA:                  -0.404
REMARK UNBOUND:                -0.675
REMARK  Name = data/D/Ligand/Carnosine.pdb
REMARK  7 active torsions:
REMARK  status: ('A' for Active; 'I' for Inactive)
REMARK    1  A    between atoms: N2_1  and  C1_2
REMARK    2  A    between atoms: C1_2  and  C2_3
REMARK    3  A    between atoms: C2_3  and  C3_4
REMARK    4  A    between atoms: N1_6  and  C4_7
REMARK    5  A    between atoms: C4_7  and  C13_8
REMARK    6  A    between atoms: C4_7  and  C5_10
REMARK    7  A    between atoms: C13_8  and  C7_9
REMARK                            x       y       z     vdW  Elec       q    Type
REMARK                         _______ _______ _______ _____ _____    ______ ____
ROOT
ATOM      1  C4  BES   501      22.853   2.402  28.273  0.00  0.00    +0.000 C 
ENDROOT
BRANCH   1   4
ATOM      2  C3  BES   501      22.045   3.144  30.578  0.00  0.00    +0.000 C 
ATOM      3  O3  BES   501      23.200   3.162  30.987  0.00  0.00    +0.000 OA
ATOM      4  N1  BES   501      21.756   2.784  29.185  0.00  0.00    +0.000 N 
ATOM      5  H7  BES   501      21.268   3.628  28.744  0.00  0.00    +0.000 HD
BRANCH   2   6
ATOM      6  C2  BES   501      20.886   3.531  31.478  0.00  0.00    +0.000 C 
BRANCH   6   7
ATOM      7  C1  BES   501      19.646   2.752  31.096  0.00  0.00    +0.000 C 
BRANCH   7   8
ATOM      8  N2  BES   501      18.983   2.246  32.267  0.00  0.00    +0.000 N 
ATOM      9  H12 BES   501      18.547   3.057  32.810  0.00  0.00    +0.000 HD
ATOM     10  H13 BES   501      19.694   1.743  32.889  0.00  0.00    +0.000 HD
ATOM     11  H2  BES   501      18.217   1.559  31.974  0.00  0.00    +0.000 HD
ENDBRANCH   7   8
ENDBRANCH   6   7
ENDBRANCH   2   6
ENDBRANCH   1   4
BRANCH   1  12
ATOM     12  C5  BES   501      22.525   2.759  26.832  0.00  0.00    +0.000 C 
ATOM     13  O1  BES   501      23.276   3.537  26.185  0.00  0.00    +0.000 OA
ATOM     14  O4  BES   501      21.509   2.270  26.268  0.00  0.00    +0.000 OA
ENDBRANCH   1  12
BRANCH   1  15
ATOM     15  C13 BES   501      23.225   0.929  28.462  0.00  0.00    +0.000 C 
BRANCH  15  16
ATOM     16  C7  BES   501      24.751   0.753  28.366  0.00  0.00    +0.000 A 
ATOM     17  C14 BES   501      25.518  -0.578  28.482  0.00  0.00    +0.000 A 
ATOM     18  N15 BES   501      27.020  -0.278  28.326  0.00  0.00    +0.000 N 
ATOM     19  C16 BES   501      27.182   1.240  28.113  0.00  0.00    +0.000 A 
ATOM     20  N17 BES   501      25.780   1.876  28.138  0.00  0.00    +0.000 NA
ATOM     21  H13 BES   501      27.813  -0.996  28.359  0.00  0.00    +0.000 HD
ENDBRANCH  15  16
ENDBRANCH   1  15
TORSDOF 7
ENDMDL
MODEL 4
REMARK VINA RESULT:    -5.849      3.049      4.290
REMARK INTER + INTRA:          -8.747
REMARK INTER:                  -7.887
REMARK INTRA:                  -0.860
REMARK UNBOUND:                -0.675
REMARK  Name = data/D/Ligand/Carnosine.pdb
REMARK  7 active torsions:
REMARK  status: ('A' for Active; 'I' for Inactive)
REMARK    1  A    between atoms: N2_1  and  C1_2
REMARK    2  A    between atoms: C1_2  and  C2_3
REMARK    3  A    between atoms: C2_3  and  C3_4
REMARK    4  A    between atoms: N1_6  and  C4_7
REMARK    5  A    between atoms: C4_7  and  C13_8
REMARK    6  A    between atoms: C4_7  and  C5_10
REMARK    7  A    between atoms: C13_8  and  C7_9
REMARK                            x       y       z     vdW  Elec       q    Type
REMARK                         _______ _______ _______ _____ _____    ______ ____
ROOT
ATOM      1  C4  BES   501      30.929   2.294  27.756  0.00  0.00    +0.000 C 
ENDROOT
BRANCH   1   4
ATOM      2  C3  BES   501      28.559   1.438  28.164  0.00  0.00    +0.000 C 
ATOM      3  O3  BES   501      28.908   0.952  29.233  0.00  0.00    +0.000 OA
ATOM      4  N1  BES   501      29.520   2.170  27.331  0.00  0.00    +0.000 N 
ATOM      5  H7  BES   501      29.142   3.165  27.225  0.00  0.00    +0.000 HD
BRANCH   2   6
ATOM      6  C2  BES   501      27.122   1.337  27.686  0.00  0.00    +0.000 C 
BRANCH   6   7
ATOM      7  C1  BES   501      26.171   1.549  28.843  0.00  0.00    +0.000 C 
BRANCH   7   8
ATOM      8  N2  BES   501      25.921   0.312  29.530  0.00  0.00    +0.000 N 
ATOM      9  H12 BES   501      25.164  -0.238  29.012  0.00  0.00    +0.000 HD
ATOM     10  H13 BES   501      25.592   0.517  30.527  0.00  0.00    +0.000 HD
ATOM     11  H2  BES   501      26.821  -0.266  29.564  0.00  0.00    +0.000 HD
ENDBRANCH   7   8
ENDBRANCH   6   7
ENDBRANCH   2   6
ENDBRANCH   1   4
BRANCH   1  12
ATOM     12  C5  BES   501      31.219   3.678  28.316  0.00  0.00    +0.000 C 
ATOM     13  O1  BES   501      31.895   3.806  29.371  0.00  0.00    +0.000 OA
ATOM     14  O4  BES   501      30.799   4.707  27.722  0.00  0.00    +0.000 OA
ENDBRANCH   1  12
BRANCH   1  15
ATOM     15  C13 BES   501      31.875   1.889  26.623  0.00  0.00    +0.000 C 
BRANCH  15  16
ATOM     16  C7  BES   501      31.187   0.865  25.702  0.00  0.00    +0.000 A 
ATOM     17  C14 BES   501      31.182  -0.664  25.893  0.00  0.00    +0.000 A 
ATOM     18  N15 BES   501      30.377  -1.286  24.737  0.00  0.00    +0.000 N 
ATOM     19  C16 BES   501      29.883  -0.141  23.832  0.00  0.00    +0.000 A 
ATOM     20  N17 BES   501      30.385   1.187  24.428  0.00  0.00    +0.000 NA
ATOM     21  H13 BES   501      30.191  -2.329  24.589  0.00  0.00    +0.000 HD
ENDBRANCH  15  16
ENDBRANCH   1  15
TORSDOF 7
ENDMDL
MODEL 5
REMARK VINA RESULT:    -5.787      2.563      5.309
REMARK INTER + INTRA:          -8.661
REMARK INTER:                  -8.019
REMARK INTRA:                  -0.642
REMARK UNBOUND:                -0.675
REMARK  Name = data/D/Ligand/Carnosine.pdb
REMARK  7 active torsions:
REMARK  status: ('A' for Active; 'I' for Inactive)
REMARK    1  A    between atoms: N2_1  and  C1_2
REMARK    2  A    between atoms: C1_2  and  C2_3
REMARK    3  A    between atoms: C2_3  and  C3_4
REMARK    4  A    between atoms: N1_6  and  C4_7
REMARK    5  A    between atoms: C4_7  and  C13_8
REMARK    6  A    between atoms: C4_7  and  C5_10
REMARK    7  A    between atoms: C13_8  and  C7_9
REMARK                            x       y       z     vdW  Elec       q    Type
REMARK                         _______ _______ _______ _____ _____    ______ ____
ROOT
ATOM      1  C4  BES   501      28.397   0.766  26.874  0.00  0.00    +0.000 C 
ENDROOT
BRANCH   1   4
ATOM      2  C3  BES   501      29.973  -0.895  28.003  0.00  0.00    +0.000 C 
ATOM      3  O3  BES   501      29.022  -1.606  28.306  0.00  0.00    +0.000 OA
ATOM      4  N1  BES   501      29.763   0.343  27.244  0.00  0.00    +0.000 N 
ATOM      5  H7  BES   501      30.312   0.243  26.331  0.00  0.00    +0.000 HD
BRANCH   2   6
ATOM      6  C2  BES   501      31.394  -1.289  28.360  0.00  0.00    +0.000 C 
BRANCH   6   7
ATOM      7  C1  BES   501      31.452  -2.754  28.733  0.00  0.00    +0.000 C 
BRANCH   7   8
ATOM      8  N2  BES   501      30.801  -2.983  29.994  0.00  0.00    +0.000 N 
ATOM      9  H12 BES   501      31.478  -3.473  30.662  0.00  0.00    +0.000 HD
ATOM     10  H13 BES   501      29.941  -3.602  29.844  0.00  0.00    +0.000 HD
ATOM     11  H2  BES   501      30.498  -2.048  30.415  0.00  0.00    +0.000 HD
ENDBRANCH   7   8
ENDBRANCH   6   7
ENDBRANCH   2   6
ENDBRANCH   1   4
BRANCH   1  12
ATOM     12  C5  BES   501      28.350   1.302  25.451  0.00  0.00    +0.000 C 
ATOM     13  O1  BES   501      27.436   0.935  24.666  0.00  0.00    +0.000 OA
ATOM     14  O4  BES   501      29.213   2.129  25.052  0.00  0.00    +0.000 OA
ENDBRANCH   1  12
BRANCH   1  15
ATOM     15  C13 BES   501      27.833   1.743  27.908  0.00  0.00    +0.000 C 
BRANCH  15  16
ATOM     16  C7  BES   501      26.371   1.386  28.231  0.00  0.00    +0.000 A 
ATOM     17  C14 BES   501      25.800  -0.037  28.389  0.00  0.00    +0.000 A 
ATOM     18  N15 BES   501      24.299   0.085  28.708  0.00  0.00    +0.000 N 
ATOM     19  C16 BES   501      23.941   1.583  28.747  0.00  0.00    +0.000 A 
ATOM     20  N17 BES   501      25.221   2.386  28.452  0.00  0.00    +0.000 NA
ATOM     21  H13 BES   501      23.623  -0.728  28.874  0.00  0.00    +0.000 HD
ENDBRANCH  15  16
ENDBRANCH   1  15
TORSDOF 7
ENDMDL
MODEL 6
REMARK VINA RESULT:    -5.723      2.473      4.828
REMARK INTER + INTRA:          -8.572
REMARK INTER:                  -7.473
REMARK INTRA:                  -1.099
REMARK UNBOUND:                -0.675
REMARK  Name = data/D/Ligand/Carnosine.pdb
REMARK  7 active torsions:
REMARK  status: ('A' for Active; 'I' for Inactive)
REMARK    1  A    between atoms: N2_1  and  C1_2
REMARK    2  A    between atoms: C1_2  and  C2_3
REMARK    3  A    between atoms: C2_3  and  C3_4
REMARK    4  A    between atoms: N1_6  and  C4_7
REMARK    5  A    between atoms: C4_7  and  C13_8
REMARK    6  A    between atoms: C4_7  and  C5_10
REMARK    7  A    between atoms: C13_8  and  C7_9
REMARK                            x       y       z     vdW  Elec       q    Type
REMARK                         _______ _______ _______ _____ _____    ______ ____
ROOT
ATOM      1  C4  BES   501      29.317  -0.030  25.574  0.00  0.00    +0.000 C 
ENDROOT
BRANCH   1   4
ATOM      2  C3  BES   501      30.744  -0.395  27.659  0.00  0.00    +0.000 C 
ATOM      3  O3  BES   501      30.272  -1.517  27.798  0.00  0.00    +0.000 OA
ATOM      4  N1  BES   501      30.334   0.450  26.532  0.00  0.00    +0.000 N 
ATOM      5  H7  BES   501      31.218   0.658  25.964  0.00  0.00    +0.000 HD
BRANCH   2   6
ATOM      6  C2  BES   501      31.793   0.141  28.617  0.00  0.00    +0.000 C 
BRANCH   6   7
ATOM      7  C1  BES   501      31.189   1.199  29.514  0.00  0.00    +0.000 C 
BRANCH   7   8
ATOM      8  N2  BES   501      30.033   0.686  30.197  0.00  0.00    +0.000 N 
ATOM      9  H12 BES   501      29.154   1.170  29.825  0.00  0.00    +0.000 HD
ATOM     10  H13 BES   501      30.125   0.876  31.246  0.00  0.00    +0.000 HD
ATOM     11  H2  BES   501      29.958  -0.368  30.031  0.00  0.00    +0.000 HD
ENDBRANCH   7   8
ENDBRANCH   6   7
ENDBRANCH   2   6
ENDBRANCH   1   4
BRANCH   1  12
ATOM     12  C5  BES   501      29.954  -0.478  24.268  0.00  0.00    +0.000 C 
ATOM     13  O1  BES   501      29.626   0.069  23.183  0.00  0.00    +0.000 OA
ATOM     14  O4  BES   501      30.825  -1.390  24.263  0.00  0.00    +0.000 OA
ENDBRANCH   1  12
BRANCH   1  15
ATOM     15  C13 BES   501      28.217   1.017  25.383  0.00  0.00    +0.000 C 
BRANCH  15  16
ATOM     16  C7  BES   501      27.341   1.099  26.646  0.00  0.00    +0.000 A 
ATOM     17  C14 BES   501      25.807   0.968  26.694  0.00  0.00    +0.000 A 
ATOM     18  N15 BES   501      25.361   1.115  28.160  0.00  0.00    +0.000 N 
ATOM     19  C16 BES   501      26.620   1.337  29.020  0.00  0.00    +0.000 A 
ATOM     20  N17 BES   501      27.843   1.327  28.084  0.00  0.00    +0.000 NA
ATOM     21  H13 BES   501      24.354   1.070  28.520  0.00  0.00    +0.000 HD
ENDBRANCH  15  16
ENDBRANCH   1  15
TORSDOF 7
ENDMDL
MODEL 7
REMARK VINA RESULT:    -5.700      2.352      3.291
REMARK INTER + INTRA:          -8.541
REMARK INTER:                  -7.708
REMARK INTRA:                  -0.834
REMARK UNBOUND:                -0.675
REMARK  Name = data/D/Ligand/Carnosine.pdb
REMARK  7 active torsions:
REMARK  status: ('A' for Active; 'I' for Inactive)
REMARK    1  A    between atoms: N2_1  and  C1_2
REMARK    2  A    between atoms: C1_2  and  C2_3
REMARK    3  A    between atoms: C2_3  and  C3_4
REMARK    4  A    between atoms: N1_6  and  C4_7
REMARK    5  A    between atoms: C4_7  and  C13_8
REMARK    6  A    between atoms: C4_7  and  C5_10
REMARK    7  A    between atoms: C13_8  and  C7_9
REMARK                            x       y       z     vdW  Elec       q    Type
REMARK                         _______ _______ _______ _____ _____    ______ ____
ROOT
ATOM      1  C4  BES   501      28.661   0.898  28.189  0.00  0.00    +0.000 C 
ENDROOT
BRANCH   1   4
ATOM      2  C3  BES   501      26.164   1.375  28.423  0.00  0.00    +0.000 C 
ATOM      3  O3  BES   501      26.269   1.374  29.644  0.00  0.00    +0.000 OA
ATOM      4  N1  BES   501      27.343   1.159  27.576  0.00  0.00    +0.000 N 
ATOM      5  H7  BES   501      27.453   2.035  26.971  0.00  0.00    +0.000 HD
BRANCH   2   6
ATOM      6  C2  BES   501      24.831   1.640  27.748  0.00  0.00    +0.000 C 
BRANCH   6   7
ATOM      7  C1  BES   501      23.973   2.532  28.619  0.00  0.00    +0.000 C 
BRANCH   7   8
ATOM      8  N2  BES   501      23.332   1.766  29.653  0.00  0.00    +0.000 N 
ATOM      9  H12 BES   501      24.069   1.230  30.211  0.00  0.00    +0.000 HD
ATOM     10  H13 BES   501      22.647   1.073  29.211  0.00  0.00    +0.000 HD
ATOM     11  H2  BES   501      22.799   2.425  30.307  0.00  0.00    +0.000 HD
ENDBRANCH   7   8
ENDBRANCH   6   7
ENDBRANCH   2   6
ENDBRANCH   1   4
BRANCH   1  12
ATOM     12  C5  BES   501      29.661   1.989  27.838  0.00  0.00    +0.000 C 
ATOM     13  O1  BES   501      30.760   2.060  28.449  0.00  0.00    +0.000 OA
ATOM     14  O4  BES   501      29.405   2.819  26.926  0.00  0.00    +0.000 OA
ENDBRANCH   1  12
BRANCH   1  15
ATOM     15  C13 BES   501      29.152  -0.509  27.838  0.00  0.00    +0.000 C 
BRANCH  15  16
ATOM     16  C7  BES   501      29.745  -0.523  26.418  0.00  0.00    +0.000 A 
ATOM     17  C14 BES   501      31.181  -0.937  26.040  0.00  0.00    +0.000 A 
ATOM     18  N15 BES   501      31.332  -0.795  24.515  0.00  0.00    +0.000 N 
ATOM     19  C16 BES   501      29.989  -0.294  23.948  0.00  0.00    +0.000 A 
ATOM     20  N17 BES   501      29.010  -0.126  25.125  0.00  0.00    +0.000 NA
ATOM     21  H13 BES   501      32.214  -1.008  23.947  0.00  0.00    +0.000 HD
ENDBRANCH  15  16
ENDBRANCH   1  15
TORSDOF 7
ENDMDL
MODEL 8
REMARK VINA RESULT:    -5.689      2.121      2.788
REMARK INTER + INTRA:          -8.526
REMARK INTER:                  -7.903
REMARK INTRA:                  -0.623
REMARK UNBOUND:                -0.675
REMARK  Name = data/D/Ligand/Carnosine.pdb
REMARK  7 active torsions:
REMARK  status: ('A' for Active; 'I' for Inactive)
REMARK    1  A    between atoms: N2_1  and  C1_2
REMARK    2  A    between atoms: C1_2  and  C2_3
REMARK    3  A    between atoms: C2_3  and  C3_4
REMARK    4  A    between atoms: N1_6  and  C4_7
REMARK    5  A    between atoms: C4_7  and  C13_8
REMARK    6  A    between atoms: C4_7  and  C5_10
REMARK    7  A    between atoms: C13_8  and  C7_9
REMARK                            x       y       z     vdW  Elec       q    Type
REMARK                         _______ _______ _______ _____ _____    ______ ____
ROOT
ATOM      1  C4  BES   501      29.946   1.076  25.093  0.00  0.00    +0.000 C 
ENDROOT
BRANCH   1   4
ATOM      2  C3  BES   501      27.482   1.110  25.760  0.00  0.00    +0.000 C 
ATOM      3  O3  BES   501      27.157   1.244  24.586  0.00  0.00    +0.000 OA
ATOM      4  N1  BES   501      28.898   0.992  26.130  0.00  0.00    +0.000 N 
ATOM      5  H7  BES   501      29.014   0.043  26.609  0.00  0.00    +0.000 HD
BRANCH   2   6
ATOM      6  C2  BES   501      26.440   1.017  26.859  0.00  0.00    +0.000 C 
BRANCH   6   7
ATOM      7  C1  BES   501      27.072   1.306  28.203  0.00  0.00    +0.000 C 
BRANCH   7   8
ATOM      8  N2  BES   501      26.346   0.653  29.258  0.00  0.00    +0.000 N 
ATOM      9  H12 BES   501      26.643   1.059  30.202  0.00  0.00    +0.000 HD
ATOM     10  H13 BES   501      26.556  -0.395  29.239  0.00  0.00    +0.000 HD
ATOM     11  H2  BES   501      25.296   0.808  29.117  0.00  0.00    +0.000 HD
ENDBRANCH   7   8
ENDBRANCH   6   7
ENDBRANCH   2   6
ENDBRANCH   1   4
BRANCH   1  12
ATOM     12  C5  BES   501      29.979  -0.179  24.235  0.00  0.00    +0.000 C 
ATOM     13  O1  BES   501      30.327  -1.281  24.737  0.00  0.00    +0.000 OA
ATOM     14  O4  BES   501      29.643  -0.131  23.021  0.00  0.00    +0.000 OA
ENDBRANCH   1  12
BRANCH   1  15
ATOM     15  C13 BES   501      31.301   1.416  25.719  0.00  0.00    +0.000 C 
BRANCH  15  16
ATOM     16  C7  BES   501      31.182   1.443  27.254  0.00  0.00    +0.000 A 
ATOM     17  C14 BES   501      31.382   2.676  28.156  0.00  0.00    +0.000 A 
ATOM     18  N15 BES   501      31.166   2.238  29.616  0.00  0.00    +0.000 N 
ATOM     19  C16 BES   501      30.831   0.734  29.617  0.00  0.00    +0.000 A 
ATOM     20  N17 BES   501      30.841   0.244  28.158  0.00  0.00    +0.000 NA
ATOM     21  H13 BES   501      31.235   2.867  30.479  0.00  0.00    +0.000 HD
ENDBRANCH  15  16
ENDBRANCH   1  15
TORSDOF 7
ENDMDL
MODEL 9
REMARK VINA RESULT:    -5.662      2.408      6.347
REMARK INTER + INTRA:          -8.489
REMARK INTER:                  -7.914
REMARK INTRA:                  -0.575
REMARK UNBOUND:                -0.675
REMARK  Name = data/D/Ligand/Carnosine.pdb
REMARK  7 active torsions:
REMARK  status: ('A' for Active; 'I' for Inactive)
REMARK    1  A    between atoms: N2_1  and  C1_2
REMARK    2  A    between atoms: C1_2  and  C2_3
REMARK    3  A    between atoms: C2_3  and  C3_4
REMARK    4  A    between atoms: N1_6  and  C4_7
REMARK    5  A    between atoms: C4_7  and  C13_8
REMARK    6  A    between atoms: C4_7  and  C5_10
REMARK    7  A    between atoms: C13_8  and  C7_9
REMARK                            x       y       z     vdW  Elec       q    Type
REMARK                         _______ _______ _______ _____ _____    ______ ____
ROOT
ATOM      1  C4  BES   501      25.738   0.968  28.138  0.00  0.00    +0.000 C 
ENDROOT
BRANCH   1   4
ATOM      2  C3  BES   501      27.932   0.812  26.843  0.00  0.00    +0.000 C 
ATOM      3  O3  BES   501      28.006   2.035  26.801  0.00  0.00    +0.000 OA
ATOM      4  N1  BES   501      26.811   0.158  27.527  0.00  0.00    +0.000 N 
ATOM      5  H7  BES   501      27.232  -0.436  28.311  0.00  0.00    +0.000 HD
BRANCH   2   6
ATOM      6  C2  BES   501      29.012  -0.061  26.231  0.00  0.00    +0.000 C 
BRANCH   6   7
ATOM      7  C1  BES   501      30.024  -0.456  27.285  0.00  0.00    +0.000 C 
BRANCH   7   8
ATOM      8  N2  BES   501      29.964   0.440  28.407  0.00  0.00    +0.000 N 
ATOM      9  H12 BES   501      29.252   0.077  29.118  0.00  0.00    +0.000 HD
ATOM     10  H13 BES   501      29.668   1.412  28.072  0.00  0.00    +0.000 HD
ATOM     11  H2  BES   501      30.928   0.501  28.867  0.00  0.00    +0.000 HD
ENDBRANCH   7   8
ENDBRANCH   6   7
ENDBRANCH   2   6
ENDBRANCH   1   4
BRANCH   1  12
ATOM     12  C5  BES   501      26.097   1.386  29.555  0.00  0.00    +0.000 C 
ATOM     13  O1  BES   501      27.290   1.316  29.953  0.00  0.00    +0.000 OA
ATOM     14  O4  BES   501      25.209   1.819  30.338  0.00  0.00    +0.000 OA
ENDBRANCH   1  12
BRANCH   1  15
ATOM     15  C13 BES   501      24.393   0.245  28.043  0.00  0.00    +0.000 C 
BRANCH  15  16
ATOM     16  C7  BES   501      23.303   1.218  27.556  0.00  0.00    +0.000 A 
ATOM     17  C14 BES   501      23.419   2.753  27.499  0.00  0.00    +0.000 A 
ATOM     18  N15 BES   501      22.094   3.311  26.950  0.00  0.00    +0.000 N 
ATOM     19  C16 BES   501      21.158   2.121  26.666  0.00  0.00    +0.000 A 
ATOM     20  N17 BES   501      21.905   0.828  27.041  0.00  0.00    +0.000 NA
ATOM     21  H13 BES   501      21.863   4.344  26.791  0.00  0.00    +0.000 HD
ENDBRANCH  15  16
ENDBRANCH   1  15
TORSDOF 7
ENDMDL
