MODEL 1
REMARK VINA RESULT:    -8.127      0.000      0.000
REMARK INTER + INTRA:         -13.230
REMARK INTER:                 -12.403
REMARK INTRA:                  -0.827
REMARK UNBOUND:                -0.827
REMARK  Name = data/D/Ligand/Bestatin.pdb
REMARK  12 active torsions:
REMARK  status: ('A' for Active; 'I' for Inactive)
REMARK    1  A    between atoms: N2_1  and  C1_2
REMARK    2  A    between atoms: C1_2  and  C6_3
REMARK    3  A    between atoms: C1_2  and  C2_10
REMARK    4  A    between atoms: C6_3  and  C7_4
REMARK    5  A    between atoms: C2_10  and  O2_11
REMARK    6  A    between atoms: C2_10  and  C3_12
REMARK    7  A    between atoms: N1_14  and  C4_15
REMARK    8  A    between atoms: C4_15  and  C13_16
REMARK    9  A    between atoms: C4_15  and  C5_20
REMARK   10  A    between atoms: C13_16  and  C14_17
REMARK   11  A    between atoms: C14_17  and  C15_18
REMARK   12  A    between atoms: C14_17  and  C16_19
REMARK                            x       y       z     vdW  Elec       q    Type
REMARK                         _______ _______ _______ _____ _____    ______ ____
ROOT
ATOM      1  C2  BES   501      25.984   0.274  28.819  0.00  0.00    +0.000 C 
ENDROOT
BRANCH   1   2
ATOM      2  C3  BES   501      27.133   0.793  28.005  0.00  0.00    +0.000 C 
ATOM      3  O3  BES   501      27.447   1.952  28.158  0.00  0.00    +0.000 OA
ATOM      4  N1  BES   501      27.818  -0.114  27.073  0.00  0.00    +0.000 N 
ATOM      5  H23 BES   501      27.472  -1.126  27.018  0.00  0.00    +0.000 HD
BRANCH   4   6
ATOM      6  C4  BES   501      28.940   0.267  26.217  0.00  0.00    +0.000 C 
BRANCH   6   7
ATOM      7  C5  BES   501      28.423   1.234  25.203  0.00  0.00    +0.000 C 
ATOM      8  O1  BES   501      29.042   2.316  25.008  0.00  0.00    +0.000 OA
ATOM      9  O4  BES   501      27.394   0.890  24.542  0.00  0.00    +0.000 OA
ENDBRANCH   6   7
BRANCH   6  10
ATOM     10  C13 BES   501      29.472  -0.969  25.484  0.00  0.00    +0.000 C 
BRANCH  10  11
ATOM     11  C14 BES   501      30.764  -0.644  24.762  0.00  0.00    +0.000 C 
ATOM     12  C15 BES   501      31.826  -0.245  25.788  0.00  0.00    +0.000 C 
ATOM     13  C16 BES   501      31.240  -1.811  23.956  0.00  0.00    +0.000 C 
ENDBRANCH  10  11
ENDBRANCH   6  10
ENDBRANCH   4   6
ENDBRANCH   1   2
BRANCH   1  14
ATOM     14  O2  BES   501      26.071   0.744  30.102  0.00  0.00    +0.000 OA
ATOM     15  H12 BES   501      25.184   1.244  30.353  0.00  0.00    +0.000 HD
ENDBRANCH   1  14
BRANCH   1  16
ATOM     16  C1  BES   501      24.701   0.764  28.221  0.00  0.00    +0.000 C 
BRANCH  16  17
ATOM     17  N2  BES   501      24.836   0.608  26.799  0.00  0.00    +0.000 NA
ATOM     18  H1  BES   501      25.778   0.326  26.379  0.00  0.00    +0.000 HD
ATOM     19  H2  BES   501      23.993   0.775  26.160  0.00  0.00    +0.000 HD
ENDBRANCH  16  17
BRANCH  16  20
ATOM     20  C6  BES   501      24.490   2.186  28.749  0.00  0.00    +0.000 C 
BRANCH  20  21
ATOM     21  C7  BES   501      23.016   2.542  29.006  0.00  0.00    +0.000 A 
ATOM     22  C8  BES   501      22.063   2.537  27.963  0.00  0.00    +0.000 A 
ATOM     23  C12 BES   501      22.613   2.851  30.300  0.00  0.00    +0.000 A 
ATOM     24  C9  BES   501      20.715   2.863  28.231  0.00  0.00    +0.000 A 
ATOM     25  C11 BES   501      21.265   3.177  30.566  0.00  0.00    +0.000 A 
ATOM     26  C10 BES   501      20.318   3.179  29.527  0.00  0.00    +0.000 A 
ENDBRANCH  20  21
ENDBRANCH  16  20
ENDBRANCH   1  16
TORSDOF 10
ENDMDL
MODEL 2
REMARK VINA RESULT:    -8.068      1.140      1.755
REMARK INTER + INTRA:         -13.141
REMARK INTER:                 -11.762
REMARK INTRA:                  -1.379
REMARK UNBOUND:                -0.827
REMARK  Name = data/D/Ligand/Bestatin.pdb
REMARK  12 active torsions:
REMARK  status: ('A' for Active; 'I' for Inactive)
REMARK    1  A    between atoms: N2_1  and  C1_2
REMARK    2  A    between atoms: C1_2  and  C6_3
REMARK    3  A    between atoms: C1_2  and  C2_10
REMARK    4  A    between atoms: C6_3  and  C7_4
REMARK    5  A    between atoms: C2_10  and  O2_11
REMARK    6  A    between atoms: C2_10  and  C3_12
REMARK    7  A    between atoms: N1_14  and  C4_15
REMARK    8  A    between atoms: C4_15  and  C13_16
REMARK    9  A    between atoms: C4_15  and  C5_20
REMARK   10  A    between atoms: C13_16  and  C14_17
REMARK   11  A    between atoms: C14_17  and  C15_18
REMARK   12  A    between atoms: C14_17  and  C16_19
REMARK                            x       y       z     vdW  Elec       q    Type
REMARK                         _______ _______ _______ _____ _____    ______ ____
ROOT
ATOM      1  C2  BES   501      25.928   0.382  28.831  0.00  0.00    +0.000 C 
ENDROOT
BRANCH   1   2
ATOM      2  C3  BES   501      27.232   0.760  28.192  0.00  0.00    +0.000 C 
ATOM      3  O3  BES   501      27.854   1.670  28.692  0.00  0.00    +0.000 OA
ATOM      4  N1  BES   501      27.691   0.020  27.009  0.00  0.00    +0.000 N 
ATOM      5  H23 BES   501      27.074  -0.778  26.650  0.00  0.00    +0.000 HD
BRANCH   4   6
ATOM      6  C4  BES   501      28.933   0.294  26.288  0.00  0.00    +0.000 C 
BRANCH   6   7
ATOM      7  C5  BES   501      28.574   0.574  24.866  0.00  0.00    +0.000 C 
ATOM      8  O1  BES   501      29.429   0.373  23.960  0.00  0.00    +0.000 OA
ATOM      9  O4  BES   501      27.386   0.962  24.631  0.00  0.00    +0.000 OA
ENDBRANCH   6   7
BRANCH   6  10
ATOM     10  C13 BES   501      29.836  -0.944  26.328  0.00  0.00    +0.000 C 
BRANCH  10  11
ATOM     11  C14 BES   501      30.893  -0.797  27.403  0.00  0.00    +0.000 C 
ATOM     12  C15 BES   501      31.241   0.683  27.566  0.00  0.00    +0.000 C 
ATOM     13  C16 BES   501      30.422  -1.362  28.705  0.00  0.00    +0.000 C 
ENDBRANCH  10  11
ENDBRANCH   6  10
ENDBRANCH   4   6
ENDBRANCH   1   2
BRANCH   1  14
ATOM     14  O2  BES   501      25.983   0.616  30.179  0.00  0.00    +0.000 OA
ATOM     15  H12 BES   501      25.012   0.604  30.577  0.00  0.00    +0.000 HD
ENDBRANCH   1  14
BRANCH   1  16
ATOM     16  C1  BES   501      24.836   1.225  28.249  0.00  0.00    +0.000 C 
BRANCH  16  17
ATOM     17  N2  BES   501      25.288   1.621  26.944  0.00  0.00    +0.000 NA
ATOM     18  H1  BES   501      25.708   0.895  26.279  0.00  0.00    +0.000 HD
ATOM     19  H2  BES   501      25.205   2.643  26.636  0.00  0.00    +0.000 HD
ENDBRANCH  16  17
BRANCH  16  20
ATOM     20  C6  BES   501      24.561   2.342  29.260  0.00  0.00    +0.000 C 
BRANCH  20  21
ATOM     21  C7  BES   501      23.068   2.665  29.440  0.00  0.00    +0.000 A 
ATOM     22  C8  BES   501      22.533   2.998  30.705  0.00  0.00    +0.000 A 
ATOM     23  C12 BES   501      22.237   2.651  28.326  0.00  0.00    +0.000 A 
ATOM     24  C9  BES   501      21.159   3.294  30.837  0.00  0.00    +0.000 A 
ATOM     25  C11 BES   501      20.863   2.948  28.461  0.00  0.00    +0.000 A 
ATOM     26  C10 BES   501      20.328   3.272  29.721  0.00  0.00    +0.000 A 
ENDBRANCH  20  21
ENDBRANCH  16  20
ENDBRANCH   1  16
TORSDOF 10
ENDMDL
MODEL 3
REMARK VINA RESULT:    -7.829      0.753      1.448
REMARK INTER + INTRA:         -12.776
REMARK INTER:                 -11.725
REMARK INTRA:                  -1.050
REMARK UNBOUND:                -0.827
REMARK  Name = data/D/Ligand/Bestatin.pdb
REMARK  12 active torsions:
REMARK  status: ('A' for Active; 'I' for Inactive)
REMARK    1  A    between atoms: N2_1  and  C1_2
REMARK    2  A    between atoms: C1_2  and  C6_3
REMARK    3  A    between atoms: C1_2  and  C2_10
REMARK    4  A    between atoms: C6_3  and  C7_4
REMARK    5  A    between atoms: C2_10  and  O2_11
REMARK    6  A    between atoms: C2_10  and  C3_12
REMARK    7  A    between atoms: N1_14  and  C4_15
REMARK    8  A    between atoms: C4_15  and  C13_16
REMARK    9  A    between atoms: C4_15  and  C5_20
REMARK   10  A    between atoms: C13_16  and  C14_17
REMARK   11  A    between atoms: C14_17  and  C15_18
REMARK   12  A    between atoms: C14_17  and  C16_19
REMARK                            x       y       z     vdW  Elec       q    Type
REMARK                         _______ _______ _______ _____ _____    ______ ____
ROOT
ATOM      1  C2  BES   501      26.067   0.382  28.844  0.00  0.00    +0.000 C 
ENDROOT
BRANCH   1   2
ATOM      2  C3  BES   501      27.450   0.691  28.350  0.00  0.00    +0.000 C 
ATOM      3  O3  BES   501      28.118   1.460  29.005  0.00  0.00    +0.000 OA
ATOM      4  N1  BES   501      27.927   0.057  27.113  0.00  0.00    +0.000 N 
ATOM      5  H23 BES   501      27.264  -0.618  26.612  0.00  0.00    +0.000 HD
BRANCH   4   6
ATOM      6  C4  BES   501      29.244   0.281  26.519  0.00  0.00    +0.000 C 
BRANCH   6   7
ATOM      7  C5  BES   501      29.295   1.703  26.064  0.00  0.00    +0.000 C 
ATOM      8  O1  BES   501      28.480   2.103  25.189  0.00  0.00    +0.000 OA
ATOM      9  O4  BES   501      30.142   2.465  26.629  0.00  0.00    +0.000 OA
ENDBRANCH   6   7
BRANCH   6  10
ATOM     10  C13 BES   501      29.420  -0.627  25.298  0.00  0.00    +0.000 C 
BRANCH  10  11
ATOM     11  C14 BES   501      30.886  -0.754  24.936  0.00  0.00    +0.000 C 
ATOM     12  C15 BES   501      31.687  -1.088  26.195  0.00  0.00    +0.000 C 
ATOM     13  C16 BES   501      31.096  -1.810  23.897  0.00  0.00    +0.000 C 
ENDBRANCH  10  11
ENDBRANCH   6  10
ENDBRANCH   4   6
ENDBRANCH   1   2
BRANCH   1  14
ATOM     14  O2  BES   501      26.000   0.583  30.197  0.00  0.00    +0.000 OA
ATOM     15  H12 BES   501      26.930   0.366  30.630  0.00  0.00    +0.000 HD
ENDBRANCH   1  14
BRANCH   1  16
ATOM     16  C1  BES   501      25.092   1.304  28.179  0.00  0.00    +0.000 C 
BRANCH  16  17
ATOM     17  N2  BES   501      25.726   1.753  26.971  0.00  0.00    +0.000 NA
ATOM     18  H1  BES   501      26.666   2.263  27.017  0.00  0.00    +0.000 HD
ATOM     19  H2  BES   501      25.258   1.579  26.024  0.00  0.00    +0.000 HD
ENDBRANCH  16  17
BRANCH  16  20
ATOM     20  C6  BES   501      24.728   2.373  29.214  0.00  0.00    +0.000 C 
BRANCH  20  21
ATOM     21  C7  BES   501      23.218   2.643  29.323  0.00  0.00    +0.000 A 
ATOM     22  C8  BES   501      22.616   2.978  30.557  0.00  0.00    +0.000 A 
ATOM     23  C12 BES   501      22.437   2.578  28.175  0.00  0.00    +0.000 A 
ATOM     24  C9  BES   501      21.227   3.226  30.624  0.00  0.00    +0.000 A 
ATOM     25  C11 BES   501      21.049   2.826  28.244  0.00  0.00    +0.000 A 
ATOM     26  C10 BES   501      20.448   3.153  29.473  0.00  0.00    +0.000 A 
ENDBRANCH  20  21
ENDBRANCH  16  20
ENDBRANCH   1  16
TORSDOF 10
ENDMDL
MODEL 4
REMARK VINA RESULT:    -7.322      1.961      7.921
REMARK INTER + INTRA:         -12.002
REMARK INTER:                 -11.229
REMARK INTRA:                  -0.772
REMARK UNBOUND:                -0.827
REMARK  Name = data/D/Ligand/Bestatin.pdb
REMARK  12 active torsions:
REMARK  status: ('A' for Active; 'I' for Inactive)
REMARK    1  A    between atoms: N2_1  and  C1_2
REMARK    2  A    between atoms: C1_2  and  C6_3
REMARK    3  A    between atoms: C1_2  and  C2_10
REMARK    4  A    between atoms: C6_3  and  C7_4
REMARK    5  A    between atoms: C2_10  and  O2_11
REMARK    6  A    between atoms: C2_10  and  C3_12
REMARK    7  A    between atoms: N1_14  and  C4_15
REMARK    8  A    between atoms: C4_15  and  C13_16
REMARK    9  A    between atoms: C4_15  and  C5_20
REMARK   10  A    between atoms: C13_16  and  C14_17
REMARK   11  A    between atoms: C14_17  and  C15_18
REMARK   12  A    between atoms: C14_17  and  C16_19
REMARK                            x       y       z     vdW  Elec       q    Type
REMARK                         _______ _______ _______ _____ _____    ______ ____
ROOT
ATOM      1  C2  BES   501      27.280   1.407  28.929  0.00  0.00    +0.000 C 
ENDROOT
BRANCH   1   2
ATOM      2  C3  BES   501      25.840   1.349  29.349  0.00  0.00    +0.000 C 
ATOM      3  O3  BES   501      25.606   1.042  30.496  0.00  0.00    +0.000 OA
ATOM      4  N1  BES   501      24.795   1.664  28.366  0.00  0.00    +0.000 N 
ATOM      5  H23 BES   501      25.105   1.937  27.378  0.00  0.00    +0.000 HD
BRANCH   4   6
ATOM      6  C4  BES   501      23.359   1.634  28.642  0.00  0.00    +0.000 C 
BRANCH   6   7
ATOM      7  C5  BES   501      22.649   1.634  27.328  0.00  0.00    +0.000 C 
ATOM      8  O1  BES   501      22.760   2.632  26.564  0.00  0.00    +0.000 OA
ATOM      9  O4  BES   501      21.996   0.588  27.019  0.00  0.00    +0.000 OA
ENDBRANCH   6   7
BRANCH   6  10
ATOM     10  C13 BES   501      22.956   2.896  29.413  0.00  0.00    +0.000 C 
BRANCH  10  11
ATOM     11  C14 BES   501      21.579   2.729  30.023  0.00  0.00    +0.000 C 
ATOM     12  C15 BES   501      21.522   3.487  31.350  0.00  0.00    +0.000 C 
ATOM     13  C16 BES   501      20.515   3.230  29.097  0.00  0.00    +0.000 C 
ENDBRANCH  10  11
ENDBRANCH   6  10
ENDBRANCH   4   6
ENDBRANCH   1   2
BRANCH   1  14
ATOM     14  O2  BES   501      28.091   1.280  30.025  0.00  0.00    +0.000 OA
ATOM     15  H12 BES   501      28.549   2.201  30.231  0.00  0.00    +0.000 HD
ENDBRANCH   1  14
BRANCH   1  16
ATOM     16  C1  BES   501      27.564   0.270  27.996  0.00  0.00    +0.000 C 
BRANCH  16  17
ATOM     17  N2  BES   501      26.665  -0.787  28.368  0.00  0.00    +0.000 NA
ATOM     18  H1  BES   501      27.048  -1.692  28.792  0.00  0.00    +0.000 HD
ATOM     19  H2  BES   501      25.611  -0.671  28.221  0.00  0.00    +0.000 HD
ENDBRANCH  16  17
BRANCH  16  20
ATOM     20  C6  BES   501      29.064  -0.020  28.106  0.00  0.00    +0.000 C 
BRANCH  20  21
ATOM     21  C7  BES   501      29.744  -0.295  26.755  0.00  0.00    +0.000 A 
ATOM     22  C8  BES   501      29.165   0.128  25.537  0.00  0.00    +0.000 A 
ATOM     23  C12 BES   501      30.968  -0.954  26.739  0.00  0.00    +0.000 A 
ATOM     24  C9  BES   501      29.817  -0.135  24.312  0.00  0.00    +0.000 A 
ATOM     25  C11 BES   501      31.618  -1.216  25.513  0.00  0.00    +0.000 A 
ATOM     26  C10 BES   501      31.039  -0.802  24.300  0.00  0.00    +0.000 A 
ENDBRANCH  20  21
ENDBRANCH  16  20
ENDBRANCH   1  16
TORSDOF 10
ENDMDL
MODEL 5
REMARK VINA RESULT:    -7.313      1.761      2.497
REMARK INTER + INTRA:         -11.988
REMARK INTER:                 -11.088
REMARK INTRA:                  -0.900
REMARK UNBOUND:                -0.827
REMARK  Name = data/D/Ligand/Bestatin.pdb
REMARK  12 active torsions:
REMARK  status: ('A' for Active; 'I' for Inactive)
REMARK    1  A    between atoms: N2_1  and  C1_2
REMARK    2  A    between atoms: C1_2  and  C6_3
REMARK    3  A    between atoms: C1_2  and  C2_10
REMARK    4  A    between atoms: C6_3  and  C7_4
REMARK    5  A    between atoms: C2_10  and  O2_11
REMARK    6  A    between atoms: C2_10  and  C3_12
REMARK    7  A    between atoms: N1_14  and  C4_15
REMARK    8  A    between atoms: C4_15  and  C13_16
REMARK    9  A    between atoms: C4_15  and  C5_20
REMARK   10  A    between atoms: C13_16  and  C14_17
REMARK   11  A    between atoms: C14_17  and  C15_18
REMARK   12  A    between atoms: C14_17  and  C16_19
REMARK                            x       y       z     vdW  Elec       q    Type
REMARK                         _______ _______ _______ _____ _____    ______ ____
ROOT
ATOM      1  C2  BES   501      25.472   1.328  26.959  0.00  0.00    +0.000 C 
ENDROOT
BRANCH   1   2
ATOM      2  C3  BES   501      26.884   1.185  27.446  0.00  0.00    +0.000 C 
ATOM      3  O3  BES   501      27.082   1.327  28.632  0.00  0.00    +0.000 OA
ATOM      4  N1  BES   501      27.948   0.882  26.479  0.00  0.00    +0.000 N 
ATOM      5  H23 BES   501      27.669   0.764  25.452  0.00  0.00    +0.000 HD
BRANCH   4   6
ATOM      6  C4  BES   501      29.362   0.729  26.820  0.00  0.00    +0.000 C 
BRANCH   6   7
ATOM      7  C5  BES   501      30.159   1.180  25.641  0.00  0.00    +0.000 C 
ATOM      8  O1  BES   501      31.338   0.755  25.492  0.00  0.00    +0.000 OA
ATOM      9  O4  BES   501      29.582   1.945  24.805  0.00  0.00    +0.000 OA
ENDBRANCH   6   7
BRANCH   6  10
ATOM     10  C13 BES   501      29.671  -0.748  27.082  0.00  0.00    +0.000 C 
BRANCH  10  11
ATOM     11  C14 BES   501      29.931  -0.985  28.556  0.00  0.00    +0.000 C 
ATOM     12  C15 BES   501      30.957  -2.109  28.711  0.00  0.00    +0.000 C 
ATOM     13  C16 BES   501      30.426   0.260  29.223  0.00  0.00    +0.000 C 
ENDBRANCH  10  11
ENDBRANCH   6  10
ENDBRANCH   4   6
ENDBRANCH   1   2
BRANCH   1  14
ATOM     14  O2  BES   501      25.101   0.207  26.266  0.00  0.00    +0.000 OA
ATOM     15  H12 BES   501      24.055   0.159  26.211  0.00  0.00    +0.000 HD
ENDBRANCH   1  14
BRANCH   1  16
ATOM     16  C1  BES   501      24.561   1.478  28.138  0.00  0.00    +0.000 C 
BRANCH  16  17
ATOM     17  N2  BES   501      24.314   0.149  28.626  0.00  0.00    +0.000 NA
ATOM     18  H1  BES   501      24.137  -0.015  29.668  0.00  0.00    +0.000 HD
ATOM     19  H2  BES   501      24.306  -0.677  27.946  0.00  0.00    +0.000 HD
ENDBRANCH  16  17
BRANCH  16  20
ATOM     20  C6  BES   501      23.349   2.279  27.653  0.00  0.00    +0.000 C 
BRANCH  20  21
ATOM     21  C7  BES   501      22.375   2.674  28.776  0.00  0.00    +0.000 A 
ATOM     22  C8  BES   501      22.816   2.856  30.106  0.00  0.00    +0.000 A 
ATOM     23  C12 BES   501      21.035   2.878  28.465  0.00  0.00    +0.000 A 
ATOM     24  C9  BES   501      21.898   3.223  31.114  0.00  0.00    +0.000 A 
ATOM     25  C11 BES   501      20.119   3.246  29.475  0.00  0.00    +0.000 A 
ATOM     26  C10 BES   501      20.557   3.420  30.800  0.00  0.00    +0.000 A 
ENDBRANCH  20  21
ENDBRANCH  16  20
ENDBRANCH   1  16
TORSDOF 10
ENDMDL
MODEL 6
REMARK VINA RESULT:    -7.299      2.710      3.212
REMARK INTER + INTRA:         -11.966
REMARK INTER:                 -10.894
REMARK INTRA:                  -1.072
REMARK UNBOUND:                -0.827
REMARK  Name = data/D/Ligand/Bestatin.pdb
REMARK  12 active torsions:
REMARK  status: ('A' for Active; 'I' for Inactive)
REMARK    1  A    between atoms: N2_1  and  C1_2
REMARK    2  A    between atoms: C1_2  and  C6_3
REMARK    3  A    between atoms: C1_2  and  C2_10
REMARK    4  A    between atoms: C6_3  and  C7_4
REMARK    5  A    between atoms: C2_10  and  O2_11
REMARK    6  A    between atoms: C2_10  and  C3_12
REMARK    7  A    between atoms: N1_14  and  C4_15
REMARK    8  A    between atoms: C4_15  and  C13_16
REMARK    9  A    between atoms: C4_15  and  C5_20
REMARK   10  A    between atoms: C13_16  and  C14_17
REMARK   11  A    between atoms: C14_17  and  C15_18
REMARK   12  A    between atoms: C14_17  and  C16_19
REMARK                            x       y       z     vdW  Elec       q    Type
REMARK                         _______ _______ _______ _____ _____    ______ ____
ROOT
ATOM      1  C2  BES   501      26.699   1.380  27.926  0.00  0.00    +0.000 C 
ENDROOT
BRANCH   1   2
ATOM      2  C3  BES   501      27.848   0.919  28.774  0.00  0.00    +0.000 C 
ATOM      3  O3  BES   501      27.945   1.392  29.885  0.00  0.00    +0.000 OA
ATOM      4  N1  BES   501      28.788  -0.070  28.231  0.00  0.00    +0.000 N 
ATOM      5  H23 BES   501      28.608  -0.437  27.241  0.00  0.00    +0.000 HD
BRANCH   4   6
ATOM      6  C4  BES   501      29.951  -0.592  28.947  0.00  0.00    +0.000 C 
BRANCH   6   7
ATOM      7  C5  BES   501      31.099   0.320  28.663  0.00  0.00    +0.000 C 
ATOM      8  O1  BES   501      31.260   1.352  29.369  0.00  0.00    +0.000 OA
ATOM      9  O4  BES   501      31.900  -0.024  27.737  0.00  0.00    +0.000 OA
ENDBRANCH   6   7
BRANCH   6  10
ATOM     10  C13 BES   501      30.296  -1.989  28.421  0.00  0.00    +0.000 C 
BRANCH  10  11
ATOM     11  C14 BES   501      30.633  -2.920  29.568  0.00  0.00    +0.000 C 
ATOM     12  C15 BES   501      29.498  -3.929  29.747  0.00  0.00    +0.000 C 
ATOM     13  C16 BES   501      31.924  -3.636  29.320  0.00  0.00    +0.000 C 
ENDBRANCH  10  11
ENDBRANCH   6  10
ENDBRANCH   4   6
ENDBRANCH   1   2
BRANCH   1  14
ATOM     14  O2  BES   501      26.766   0.793  26.690  0.00  0.00    +0.000 OA
ATOM     15  H12 BES   501      27.065   1.506  25.980  0.00  0.00    +0.000 HD
ENDBRANCH   1  14
BRANCH   1  16
ATOM     16  C1  BES   501      25.414   0.967  28.576  0.00  0.00    +0.000 C 
BRANCH  16  17
ATOM     17  N2  BES   501      25.611  -0.380  29.034  0.00  0.00    +0.000 NA
ATOM     18  H1  BES   501      26.412  -0.969  28.637  0.00  0.00    +0.000 HD
ATOM     19  H2  BES   501      24.957  -0.796  29.772  0.00  0.00    +0.000 HD
ENDBRANCH  16  17
BRANCH  16  20
ATOM     20  C6  BES   501      24.308   1.196  27.541  0.00  0.00    +0.000 C 
BRANCH  20  21
ATOM     21  C7  BES   501      23.060   1.894  28.108  0.00  0.00    +0.000 A 
ATOM     22  C8  BES   501      21.900   2.082  27.324  0.00  0.00    +0.000 A 
ATOM     23  C12 BES   501      23.072   2.324  29.430  0.00  0.00    +0.000 A 
ATOM     24  C9  BES   501      20.768   2.721  27.875  0.00  0.00    +0.000 A 
ATOM     25  C11 BES   501      21.938   2.963  29.978  0.00  0.00    +0.000 A 
ATOM     26  C10 BES   501      20.785   3.158  29.196  0.00  0.00    +0.000 A 
ENDBRANCH  20  21
ENDBRANCH  16  20
ENDBRANCH   1  16
TORSDOF 10
ENDMDL
MODEL 7
REMARK VINA RESULT:    -7.260      1.826      2.238
REMARK INTER + INTRA:         -11.907
REMARK INTER:                 -10.584
REMARK INTRA:                  -1.323
REMARK UNBOUND:                -0.827
REMARK  Name = data/D/Ligand/Bestatin.pdb
REMARK  12 active torsions:
REMARK  status: ('A' for Active; 'I' for Inactive)
REMARK    1  A    between atoms: N2_1  and  C1_2
REMARK    2  A    between atoms: C1_2  and  C6_3
REMARK    3  A    between atoms: C1_2  and  C2_10
REMARK    4  A    between atoms: C6_3  and  C7_4
REMARK    5  A    between atoms: C2_10  and  O2_11
REMARK    6  A    between atoms: C2_10  and  C3_12
REMARK    7  A    between atoms: N1_14  and  C4_15
REMARK    8  A    between atoms: C4_15  and  C13_16
REMARK    9  A    between atoms: C4_15  and  C5_20
REMARK   10  A    between atoms: C13_16  and  C14_17
REMARK   11  A    between atoms: C14_17  and  C15_18
REMARK   12  A    between atoms: C14_17  and  C16_19
REMARK                            x       y       z     vdW  Elec       q    Type
REMARK                         _______ _______ _______ _____ _____    ______ ____
ROOT
ATOM      1  C2  BES   501      26.486   0.290  28.798  0.00  0.00    +0.000 C 
ENDROOT
BRANCH   1   2
ATOM      2  C3  BES   501      27.834   0.247  28.139  0.00  0.00    +0.000 C 
ATOM      3  O3  BES   501      28.210  -0.821  27.709  0.00  0.00    +0.000 OA
ATOM      4  N1  BES   501      28.625   1.481  28.045  0.00  0.00    +0.000 N 
ATOM      5  H23 BES   501      28.199   2.378  28.445  0.00  0.00    +0.000 HD
BRANCH   4   6
ATOM      6  C4  BES   501      29.953   1.571  27.440  0.00  0.00    +0.000 C 
BRANCH   6   7
ATOM      7  C5  BES   501      30.655   2.730  28.069  0.00  0.00    +0.000 C 
ATOM      8  O1  BES   501      30.396   3.899  27.674  0.00  0.00    +0.000 OA
ATOM      9  O4  BES   501      31.457   2.477  29.023  0.00  0.00    +0.000 OA
ENDBRANCH   6   7
BRANCH   6  10
ATOM     10  C13 BES   501      29.817   1.842  25.938  0.00  0.00    +0.000 C 
BRANCH  10  11
ATOM     11  C14 BES   501      30.446   0.720  25.136  0.00  0.00    +0.000 C 
ATOM     12  C15 BES   501      31.293  -0.149  26.066  0.00  0.00    +0.000 C 
ATOM     13  C16 BES   501      29.401  -0.113  24.463  0.00  0.00    +0.000 C 
ENDBRANCH  10  11
ENDBRANCH   6  10
ENDBRANCH   4   6
ENDBRANCH   1   2
BRANCH   1  14
ATOM     14  O2  BES   501      26.544   1.060  29.929  0.00  0.00    +0.000 OA
ATOM     15  H12 BES   501      26.153   0.521  30.739  0.00  0.00    +0.000 HD
ENDBRANCH   1  14
BRANCH   1  16
ATOM     16  C1  BES   501      25.500   0.908  27.854  0.00  0.00    +0.000 C 
BRANCH  16  17
ATOM     17  N2  BES   501      26.148   0.956  26.572  0.00  0.00    +0.000 NA
ATOM     18  H1  BES   501      25.604   1.278  25.709  0.00  0.00    +0.000 HD
ATOM     19  H2  BES   501      27.175   0.668  26.481  0.00  0.00    +0.000 HD
ENDBRANCH  16  17
BRANCH  16  20
ATOM     20  C6  BES   501      25.084   2.246  28.474  0.00  0.00    +0.000 C 
BRANCH  20  21
ATOM     21  C7  BES   501      23.564   2.484  28.474  0.00  0.00    +0.000 A 
ATOM     22  C8  BES   501      22.812   2.450  27.279  0.00  0.00    +0.000 A 
ATOM     23  C12 BES   501      22.919   2.715  29.684  0.00  0.00    +0.000 A 
ATOM     24  C9  BES   501      21.417   2.668  27.312  0.00  0.00    +0.000 A 
ATOM     25  C11 BES   501      21.524   2.933  29.715  0.00  0.00    +0.000 A 
ATOM     26  C10 BES   501      20.776   2.906  28.524  0.00  0.00    +0.000 A 
ENDBRANCH  20  21
ENDBRANCH  16  20
ENDBRANCH   1  16
TORSDOF 10
ENDMDL
MODEL 8
REMARK VINA RESULT:    -7.181      1.616      2.118
REMARK INTER + INTRA:         -11.787
REMARK INTER:                 -11.234
REMARK INTRA:                  -0.553
REMARK UNBOUND:                -0.827
REMARK  Name = data/D/Ligand/Bestatin.pdb
REMARK  12 active torsions:
REMARK  status: ('A' for Active; 'I' for Inactive)
REMARK    1  A    between atoms: N2_1  and  C1_2
REMARK    2  A    between atoms: C1_2  and  C6_3
REMARK    3  A    between atoms: C1_2  and  C2_10
REMARK    4  A    between atoms: C6_3  and  C7_4
REMARK    5  A    between atoms: C2_10  and  O2_11
REMARK    6  A    between atoms: C2_10  and  C3_12
REMARK    7  A    between atoms: N1_14  and  C4_15
REMARK    8  A    between atoms: C4_15  and  C13_16
REMARK    9  A    between atoms: C4_15  and  C5_20
REMARK   10  A    between atoms: C13_16  and  C14_17
REMARK   11  A    between atoms: C14_17  and  C15_18
REMARK   12  A    between atoms: C14_17  and  C16_19
REMARK                            x       y       z     vdW  Elec       q    Type
REMARK                         _______ _______ _______ _____ _____    ______ ____
ROOT
ATOM      1  C2  BES   501      25.865   0.281  29.128  0.00  0.00    +0.000 C 
ENDROOT
BRANCH   1   2
ATOM      2  C3  BES   501      27.246   0.422  28.558  0.00  0.00    +0.000 C 
ATOM      3  O3  BES   501      27.794   1.495  28.683  0.00  0.00    +0.000 OA
ATOM      4  N1  BES   501      27.864  -0.728  27.886  0.00  0.00    +0.000 N 
ATOM      5  H23 BES   501      27.302  -1.638  27.837  0.00  0.00    +0.000 HD
BRANCH   4   6
ATOM      6  C4  BES   501      29.195  -0.720  27.280  0.00  0.00    +0.000 C 
BRANCH   6   7
ATOM      7  C5  BES   501      30.190  -0.887  28.380  0.00  0.00    +0.000 C 
ATOM      8  O1  BES   501      30.412  -2.039  28.844  0.00  0.00    +0.000 OA
ATOM      9  O4  BES   501      30.811   0.153  28.767  0.00  0.00    +0.000 OA
ENDBRANCH   6   7
BRANCH   6  10
ATOM     10  C13 BES   501      29.443   0.631  26.600  0.00  0.00    +0.000 C 
BRANCH  10  11
ATOM     11  C14 BES   501      30.129   0.436  25.263  0.00  0.00    +0.000 C 
ATOM     12  C15 BES   501      31.612   0.781  25.405  0.00  0.00    +0.000 C 
ATOM     13  C16 BES   501      29.971  -0.970  24.776  0.00  0.00    +0.000 C 
ENDBRANCH  10  11
ENDBRANCH   6  10
ENDBRANCH   4   6
ENDBRANCH   1   2
BRANCH   1  14
ATOM     14  O2  BES   501      25.813   0.851  30.373  0.00  0.00    +0.000 OA
ATOM     15  H12 BES   501      24.887   0.637  30.818  0.00  0.00    +0.000 HD
ENDBRANCH   1  14
BRANCH   1  16
ATOM     16  C1  BES   501      24.894   0.996  28.240  0.00  0.00    +0.000 C 
BRANCH  16  17
ATOM     17  N2  BES   501      25.483   1.008  26.930  0.00  0.00    +0.000 NA
ATOM     18  H1  BES   501      25.555   1.926  26.384  0.00  0.00    +0.000 HD
ATOM     19  H2  BES   501      25.850   0.100  26.499  0.00  0.00    +0.000 HD
ENDBRANCH  16  17
BRANCH  16  20
ATOM     20  C6  BES   501      24.623   2.355  28.895  0.00  0.00    +0.000 C 
BRANCH  20  21
ATOM     21  C7  BES   501      23.131   2.646  29.128  0.00  0.00    +0.000 A 
ATOM     22  C8  BES   501      22.195   2.597  28.070  0.00  0.00    +0.000 A 
ATOM     23  C12 BES   501      22.695   2.940  30.415  0.00  0.00    +0.000 A 
ATOM     24  C9  BES   501      20.831   2.864  28.317  0.00  0.00    +0.000 A 
ATOM     25  C11 BES   501      21.331   3.208  30.659  0.00  0.00    +0.000 A 
ATOM     26  C10 BES   501      20.400   3.166  29.605  0.00  0.00    +0.000 A 
ENDBRANCH  20  21
ENDBRANCH  16  20
ENDBRANCH   1  16
TORSDOF 10
ENDMDL
MODEL 9
REMARK VINA RESULT:    -7.139      1.746      2.481
REMARK INTER + INTRA:         -11.722
REMARK INTER:                 -10.410
REMARK INTRA:                  -1.312
REMARK UNBOUND:                -0.827
REMARK  Name = data/D/Ligand/Bestatin.pdb
REMARK  12 active torsions:
REMARK  status: ('A' for Active; 'I' for Inactive)
REMARK    1  A    between atoms: N2_1  and  C1_2
REMARK    2  A    between atoms: C1_2  and  C6_3
REMARK    3  A    between atoms: C1_2  and  C2_10
REMARK    4  A    between atoms: C6_3  and  C7_4
REMARK    5  A    between atoms: C2_10  and  O2_11
REMARK    6  A    between atoms: C2_10  and  C3_12
REMARK    7  A    between atoms: N1_14  and  C4_15
REMARK    8  A    between atoms: C4_15  and  C13_16
REMARK    9  A    between atoms: C4_15  and  C5_20
REMARK   10  A    between atoms: C13_16  and  C14_17
REMARK   11  A    between atoms: C14_17  and  C15_18
REMARK   12  A    between atoms: C14_17  and  C16_19
REMARK                            x       y       z     vdW  Elec       q    Type
REMARK                         _______ _______ _______ _____ _____    ______ ____
ROOT
ATOM      1  C2  BES   501      26.676   1.372  26.688  0.00  0.00    +0.000 C 
ENDROOT
BRANCH   1   2
ATOM      2  C3  BES   501      28.177   1.350  26.704  0.00  0.00    +0.000 C 
ATOM      3  O3  BES   501      28.738   2.125  27.446  0.00  0.00    +0.000 OA
ATOM      4  N1  BES   501      28.888   0.404  25.834  0.00  0.00    +0.000 N 
ATOM      5  H23 BES   501      28.301  -0.249  25.222  0.00  0.00    +0.000 HD
BRANCH   4   6
ATOM      6  C4  BES   501      30.343   0.289  25.746  0.00  0.00    +0.000 C 
BRANCH   6   7
ATOM      7  C5  BES   501      30.710   0.320  24.299  0.00  0.00    +0.000 C 
ATOM      8  O1  BES   501      31.927   0.367  23.969  0.00  0.00    +0.000 OA
ATOM      9  O4  BES   501      29.761   0.247  23.456  0.00  0.00    +0.000 OA
ENDBRANCH   6   7
BRANCH   6  10
ATOM     10  C13 BES   501      30.790  -1.054  26.333  0.00  0.00    +0.000 C 
BRANCH  10  11
ATOM     11  C14 BES   501      31.459  -0.850  27.678  0.00  0.00    +0.000 C 
ATOM     12  C15 BES   501      31.901   0.608  27.804  0.00  0.00    +0.000 C 
ATOM     13  C16 BES   501      30.535  -1.208  28.799  0.00  0.00    +0.000 C 
ENDBRANCH  10  11
ENDBRANCH   6  10
ENDBRANCH   4   6
ENDBRANCH   1   2
BRANCH   1  14
ATOM     14  O2  BES   501      26.212   0.758  25.555  0.00  0.00    +0.000 OA
ATOM     15  H12 BES   501      26.819  -0.068  25.331  0.00  0.00    +0.000 HD
ENDBRANCH   1  14
BRANCH   1  16
ATOM     16  C1  BES   501      26.163   0.621  27.877  0.00  0.00    +0.000 C 
BRANCH  16  17
ATOM     17  N2  BES   501      27.087  -0.458  28.099  0.00  0.00    +0.000 NA
ATOM     18  H1  BES   501      27.828  -0.688  27.361  0.00  0.00    +0.000 HD
ATOM     19  H2  BES   501      27.034  -1.031  29.001  0.00  0.00    +0.000 HD
ENDBRANCH  16  17
BRANCH  16  20
ATOM     20  C6  BES   501      24.713   0.242  27.561  0.00  0.00    +0.000 C 
BRANCH  20  21
ATOM     21  C7  BES   501      23.677   1.239  28.106  0.00  0.00    +0.000 A 
ATOM     22  C8  BES   501      22.539   1.605  27.354  0.00  0.00    +0.000 A 
ATOM     23  C12 BES   501      23.858   1.770  29.378  0.00  0.00    +0.000 A 
ATOM     24  C9  BES   501      21.602   2.520  27.884  0.00  0.00    +0.000 A 
ATOM     25  C11 BES   501      22.920   2.685  29.906  0.00  0.00    +0.000 A 
ATOM     26  C10 BES   501      21.790   3.055  29.155  0.00  0.00    +0.000 A 
ENDBRANCH  20  21
ENDBRANCH  16  20
ENDBRANCH   1  16
TORSDOF 10
ENDMDL
