MODEL 1
REMARK VINA RESULT:     4.270      0.000      0.000
REMARK INTER + INTRA:           6.992
REMARK INTER:                   6.267
REMARK INTRA:                   0.725
REMARK UNBOUND:                 0.725
REMARK  Name = data/A/Ligand/Oryzanol.pdb
REMARK  18 active torsions:
REMARK  status: ('A' for Active; 'I' for Inactive)
REMARK    1  A    between atoms: O1_1  and  C31_2
REMARK    2  A    between atoms: O1_1  and  C21_16
REMARK    3  A    between atoms: C31_2  and  C33_4
REMARK    4  A    between atoms: C35_5  and  C38_6
REMARK    5  A    between atoms: C41_8  and  O3_12
REMARK    6  A    between atoms: C43_9  and  O4_14
REMARK    7  A    between atoms: O3_12  and  C44_13
REMARK    8  A    between atoms: C17_17  and  C27_19
REMARK    9  A    between atoms: C17_17  and  C26_20
REMARK   10  A    between atoms: C10_28  and  C23_31
REMARK   11  A    between atoms: C12_32  and  C24_36
REMARK   12  A    between atoms: C18_34  and  C25_38
REMARK   13  A    between atoms: C25_38  and  C29_39
REMARK   14  A    between atoms: C25_38  and  C28_40
REMARK   15  A    between atoms: C28_40  and  C30_41
REMARK   16  A    between atoms: C30_41  and  C32_42
REMARK   17  A    between atoms: C34_43  and  C36_44
REMARK   18  A    between atoms: C34_43  and  C37_45
REMARK                            x       y       z     vdW  Elec       q    Type
REMARK                         _______ _______ _______ _____ _____    ______ ____
ROOT
ATOM      1  C21 UNK     0      42.511  24.454 241.025  0.00  0.00    +0.000 C 
ATOM      2  C17 UNK     0      43.268  24.419 239.558  0.00  0.00    +0.000 C 
ATOM      3  C9  UNK     0      44.779  23.671 239.626  0.00  0.00    +0.000 C 
ATOM      4  C27 UNK     0      42.325  23.701 238.554  0.00  0.00    +0.000 C 
ATOM      5  C26 UNK     0      43.469  25.864 239.066  0.00  0.00    +0.000 C 
ATOM      6  C6  UNK     0      44.715  22.207 240.172  0.00  0.00    +0.000 C 
ATOM      7  C15 UNK     0      45.478  23.618 238.193  0.00  0.00    +0.000 C 
ATOM      8  C5  UNK     0      46.018  21.215 239.945  0.00  0.00    +0.000 C 
ATOM      9  C7  UNK     0      44.433  21.168 239.292  0.00  0.00    +0.000 C 
ATOM     10  C13 UNK     0      43.937  22.200 241.564  0.00  0.00    +0.000 C 
ATOM     11  C8  UNK     0      46.818  21.367 238.581  0.00  0.00    +0.000 C 
ATOM     12  C11 UNK     0      46.040  19.673 240.389  0.00  0.00    +0.000 C 
ATOM     13  C10 UNK     0      48.316  20.666 238.671  0.00  0.00    +0.000 C 
ATOM     14  C14 UNK     0      46.904  22.906 238.225  0.00  0.00    +0.000 C 
ATOM     15  C19 UNK     0      49.122  20.586 237.312  0.00  0.00    +0.000 C 
ATOM     16  C23 UNK     0      49.162  21.437 239.733  0.00  0.00    +0.000 C 
ATOM     17  C12 UNK     0      48.258  19.147 239.050  0.00  0.00    +0.000 C 
ATOM     18  C22 UNK     0      50.048  19.241 237.420  0.00  0.00    +0.000 C 
ATOM     19  C18 UNK     0      49.857  18.706 238.877  0.00  0.00    +0.000 C 
ATOM     20  C16 UNK     0      47.543  19.052 240.461  0.00  0.00    +0.000 C 
ATOM     21  C24 UNK     0      47.436  18.338 238.001  0.00  0.00    +0.000 C 
ATOM     22  C20 UNK     0      42.437  22.909 241.467  0.00  0.00    +0.000 C 
ENDROOT
BRANCH  19  23
ATOM     23  C25 UNK     0      50.313  17.116 239.054  0.00  0.00    +0.000 C 
ATOM     24  C29 UNK     0      51.807  16.938 238.717  0.00  0.00    +0.000 C 
BRANCH  23  25
ATOM     25  C28 UNK     0      49.502  16.085 238.125  0.00  0.00    +0.000 C 
BRANCH  25  26
ATOM     26  C30 UNK     0      49.030  14.805 238.980  0.00  0.00    +0.000 C 
BRANCH  26  27
ATOM     27  C32 UNK     0      49.026  15.040 240.511  0.00  0.00    +0.000 C 
ATOM     28  C34 UNK     0      48.110  14.471 241.320  0.00  0.00    +0.000 C 
ATOM     29  C36 UNK     0      48.154  14.716 242.812  0.00  0.00    +0.000 C 
ATOM     30  C37 UNK     0      47.025  13.584 240.762  0.00  0.00    +0.000 C 
ENDBRANCH  26  27
ENDBRANCH  25  26
ENDBRANCH  23  25
ENDBRANCH  19  23
BRANCH   1  31
ATOM     31  O1  UNK     0      41.065  25.263 240.945  0.00  0.00    +0.000 OA
BRANCH  31  32
ATOM     32  C31 UNK     0      39.974  24.982 239.827  0.00  0.00    +0.000 C 
ATOM     33  O2  UNK     0      38.899  24.483 240.173  0.00  0.00    +0.000 OA
BRANCH  32  34
ATOM     34  C33 UNK     0      40.140  25.391 238.217  0.00  0.00    +0.000 C 
ATOM     35  C35 UNK     0      40.728  26.572 237.787  0.00  0.00    +0.000 C 
BRANCH  35  36
ATOM     36  C38 UNK     0      41.067  27.103 236.261  0.00  0.00    +0.000 A 
ATOM     37  C39 UNK     0      40.120  27.046 235.291  0.00  0.00    +0.000 A 
ATOM     38  C41 UNK     0      40.383  27.566 233.868  0.00  0.00    +0.000 A 
ATOM     39  C43 UNK     0      41.544  28.139 233.576  0.00  0.00    +0.000 A 
ATOM     40  C42 UNK     0      42.593  28.210 234.624  0.00  0.00    +0.000 A 
ATOM     41  C40 UNK     0      42.378  27.736 235.874  0.00  0.00    +0.000 A 
BRANCH  38  42
ATOM     42  O3  UNK     0      39.411  27.506 232.830  0.00  0.00    +0.000 OA
ATOM     43  C44 UNK     0      39.680  26.473 231.887  0.00  0.00    +0.000 C 
ENDBRANCH  38  42
BRANCH  39  44
ATOM     44  O4  UNK     0      41.756  28.632 232.249  0.00  0.00    +0.000 OA
ATOM     45  H99 UNK     0      42.686  28.950 232.124  0.00  0.00    +0.000 HD
ENDBRANCH  39  44
ENDBRANCH  35  36
ENDBRANCH  32  34
ENDBRANCH  31  32
ENDBRANCH   1  31
TORSDOF 10
ENDMDL
