MODEL 1
REMARK VINA RESULT:    -7.752      0.000      0.000
REMARK INTER + INTRA:          -8.659
REMARK INTER:                  -8.659
REMARK INTRA:                   0.000
REMARK UNBOUND:                 0.000
REMARK  Name = data/B/Ligand/Hematein.pdb
REMARK  4 active torsions:
REMARK  status: ('A' for Active; 'I' for Inactive)
REMARK    1  A    between atoms: C5_5  and  O19_19
REMARK    2  A    between atoms: C6_6  and  O18_18
REMARK    3  A    between atoms: C7_7  and  O20_20
REMARK    4  A    between atoms: C17_17  and  O21_21
REMARK                            x       y       z     vdW  Elec       q    Type
REMARK                         _______ _______ _______ _____ _____    ______ ____
ROOT
ATOM      1  C1  UNK H   1     -34.940  15.545 -24.590  0.00  0.00    +0.000 A 
ATOM      2  C2  UNK H   1     -34.033  14.650 -24.982  0.00  0.00    +0.000 A 
ATOM      3  C3  UNK H   1     -34.559  16.608 -23.639  0.00  0.00    +0.000 A 
ATOM      4  C4  UNK H   1     -32.667  14.712 -24.460  0.00  0.00    +0.000 A 
ATOM      5  C5  UNK H   1     -33.318  16.651 -23.158  0.00  0.00    +0.000 A 
ATOM      6  C6  UNK H   1     -32.330  15.659 -23.586  0.00  0.00    +0.000 A 
ATOM      7  C7  UNK H   1     -37.298  16.424 -24.359  0.00  0.00    +0.000 C 
ATOM      8  C8  UNK H   1     -36.342  15.520 -25.020  0.00  0.00    +0.000 C 
ATOM      9  C9  UNK H   1     -36.696  17.775 -23.975  0.00  0.00    +0.000 C 
ATOM     10  O10 UNK H   1     -35.479  17.585 -23.260  0.00  0.00    +0.000 OA
ATOM     11  C11 UNK H   1     -38.569  16.424 -25.268  0.00  0.00    +0.000 C 
ATOM     12  C12 UNK H   1     -38.345  15.103 -25.946  0.00  0.00    +0.000 C 
ATOM     13  C13 UNK H   1     -36.984  14.703 -25.855  0.00  0.00    +0.000 C 
ATOM     14  C14 UNK H   1     -39.233  14.438 -26.675  0.00  0.00    +0.000 C 
ATOM     15  C15 UNK H   1     -38.774  13.230 -27.379  0.00  0.00    +0.000 C 
ATOM     16  C16 UNK H   1     -36.474  13.565 -26.617  0.00  0.00    +0.000 C 
ATOM     17  C17 UNK H   1     -37.338  12.852 -27.344  0.00  0.00    +0.000 C 
ATOM     18  O22 UNK H   1     -39.571  12.563 -28.046  0.00  0.00    +0.000 OA
ENDROOT
BRANCH   6  19
ATOM     19  O18 UNK H   1     -31.032  15.714 -23.089  0.00  0.00    +0.000 OA
ATOM     20  H9  UNK H   1     -30.544  14.804 -23.283  0.00  0.00    +0.000 HD
ENDBRANCH   6  19
BRANCH   5  21
ATOM     21  O19 UNK H   1     -32.954  17.655 -22.269  0.00  0.00    +0.000 OA
ATOM     22  H10 UNK H   1     -33.245  18.587 -22.654  0.00  0.00    +0.000 HD
ENDBRANCH   5  21
BRANCH   7  23
ATOM     23  O20 UNK H   1     -37.627  15.722 -23.159  0.00  0.00    +0.000 OA
ATOM     24  H11 UNK H   1     -37.317  16.283 -22.328  0.00  0.00    +0.000 HD
ENDBRANCH   7  23
BRANCH  17  25
ATOM     25  O21 UNK H   1     -36.892  11.753 -28.068  0.00  0.00    +0.000 OA
ATOM     26  H12 UNK H   1     -37.516  11.605 -28.900  0.00  0.00    +0.000 HD
ENDBRANCH  17  25
TORSDOF 4
ENDMDL
MODEL 2
REMARK VINA RESULT:    -7.675      2.532      6.135
REMARK INTER + INTRA:          -8.572
REMARK INTER:                  -8.572
REMARK INTRA:                   0.000
REMARK UNBOUND:                 0.000
REMARK  Name = data/B/Ligand/Hematein.pdb
REMARK  4 active torsions:
REMARK  status: ('A' for Active; 'I' for Inactive)
REMARK    1  A    between atoms: C5_5  and  O19_19
REMARK    2  A    between atoms: C6_6  and  O18_18
REMARK    3  A    between atoms: C7_7  and  O20_20
REMARK    4  A    between atoms: C17_17  and  O21_21
REMARK                            x       y       z     vdW  Elec       q    Type
REMARK                         _______ _______ _______ _____ _____    ______ ____
ROOT
ATOM      1  C1  UNK H   1     -37.213  15.529 -25.624  0.00  0.00    +0.000 A 
ATOM      2  C2  UNK H   1     -38.542  15.613 -25.580  0.00  0.00    +0.000 A 
ATOM      3  C3  UNK H   1     -36.561  14.205 -25.666  0.00  0.00    +0.000 A 
ATOM      4  C4  UNK H   1     -39.354  14.395 -25.560  0.00  0.00    +0.000 A 
ATOM      5  C5  UNK H   1     -37.305  13.101 -25.634  0.00  0.00    +0.000 A 
ATOM      6  C6  UNK H   1     -38.764  13.200 -25.576  0.00  0.00    +0.000 A 
ATOM      7  C7  UNK H   1     -34.878  16.477 -25.428  0.00  0.00    +0.000 C 
ATOM      8  C8  UNK H   1     -36.325  16.696 -25.591  0.00  0.00    +0.000 C 
ATOM      9  C9  UNK H   1     -34.368  15.216 -26.125  0.00  0.00    +0.000 C 
ATOM     10  O10 UNK H   1     -35.174  14.098 -25.768  0.00  0.00    +0.000 OA
ATOM     11  C11 UNK H   1     -34.206  17.838 -25.799  0.00  0.00    +0.000 C 
ATOM     12  C12 UNK H   1     -35.383  18.734 -25.540  0.00  0.00    +0.000 C 
ATOM     13  C13 UNK H   1     -36.600  18.000 -25.552  0.00  0.00    +0.000 C 
ATOM     14  C14 UNK H   1     -35.354  20.059 -25.457  0.00  0.00    +0.000 C 
ATOM     15  C15 UNK H   1     -36.639  20.766 -25.343  0.00  0.00    +0.000 C 
ATOM     16  C16 UNK H   1     -37.895  18.677 -25.538  0.00  0.00    +0.000 C 
ATOM     17  C17 UNK H   1     -37.913  20.007 -25.428  0.00  0.00    +0.000 C 
ATOM     18  O22 UNK H   1     -36.660  21.996 -25.234  0.00  0.00    +0.000 OA
ENDROOT
BRANCH   6  19
ATOM     19  O18 UNK H   1     -39.538  12.045 -25.554  0.00  0.00    +0.000 OA
ATOM     20  H9  UNK H   1     -39.605  11.687 -24.568  0.00  0.00    +0.000 HD
ENDBRANCH   6  19
BRANCH   5  21
ATOM     21  O19 UNK H   1     -36.695  11.853 -25.682  0.00  0.00    +0.000 OA
ATOM     22  H10 UNK H   1     -36.949  11.372 -26.580  0.00  0.00    +0.000 HD
ENDBRANCH   5  21
BRANCH   7  23
ATOM     23  O20 UNK H   1     -34.738  16.298 -24.018  0.00  0.00    +0.000 OA
ATOM     24  H11 UNK H   1     -35.300  17.028 -23.514  0.00  0.00    +0.000 HD
ENDBRANCH   7  23
BRANCH  17  25
ATOM     25  O21 UNK H   1     -39.127  20.683 -25.395  0.00  0.00    +0.000 OA
ATOM     26  H12 UNK H   1     -39.758  20.235 -24.685  0.00  0.00    +0.000 HD
ENDBRANCH  17  25
TORSDOF 4
ENDMDL
MODEL 3
REMARK VINA RESULT:    -7.150      2.689      4.715
REMARK INTER + INTRA:          -7.986
REMARK INTER:                  -7.986
REMARK INTRA:                   0.000
REMARK UNBOUND:                 0.000
REMARK  Name = data/B/Ligand/Hematein.pdb
REMARK  4 active torsions:
REMARK  status: ('A' for Active; 'I' for Inactive)
REMARK    1  A    between atoms: C5_5  and  O19_19
REMARK    2  A    between atoms: C6_6  and  O18_18
REMARK    3  A    between atoms: C7_7  and  O20_20
REMARK    4  A    between atoms: C17_17  and  O21_21
REMARK                            x       y       z     vdW  Elec       q    Type
REMARK                         _______ _______ _______ _____ _____    ______ ____
ROOT
ATOM      1  C1  UNK H   1     -36.942  18.185 -25.430  0.00  0.00    +0.000 A 
ATOM      2  C2  UNK H   1     -38.253  18.357 -25.271  0.00  0.00    +0.000 A 
ATOM      3  C3  UNK H   1     -36.051  19.360 -25.516  0.00  0.00    +0.000 A 
ATOM      4  C4  UNK H   1     -38.812  19.708 -25.194  0.00  0.00    +0.000 A 
ATOM      5  C5  UNK H   1     -36.567  20.585 -25.459  0.00  0.00    +0.000 A 
ATOM      6  C6  UNK H   1     -38.010  20.768 -25.294  0.00  0.00    +0.000 A 
ATOM      7  C7  UNK H   1     -34.888  16.809 -25.956  0.00  0.00    +0.000 C 
ATOM      8  C8  UNK H   1     -36.308  16.870 -25.571  0.00  0.00    +0.000 C 
ATOM      9  C9  UNK H   1     -34.047  17.943 -25.371  0.00  0.00    +0.000 C 
ATOM     10  O10 UNK H   1     -34.670  19.198 -25.627  0.00  0.00    +0.000 OA
ATOM     11  C11 UNK H   1     -34.439  15.342 -25.661  0.00  0.00    +0.000 C 
ATOM     12  C12 UNK H   1     -35.790  14.689 -25.720  0.00  0.00    +0.000 C 
ATOM     13  C13 UNK H   1     -36.829  15.643 -25.540  0.00  0.00    +0.000 C 
ATOM     14  C14 UNK H   1     -36.027  13.385 -25.778  0.00  0.00    +0.000 C 
ATOM     15  C15 UNK H   1     -37.425  12.937 -25.681  0.00  0.00    +0.000 C 
ATOM     16  C16 UNK H   1     -38.216  15.227 -25.344  0.00  0.00    +0.000 C 
ATOM     17  C17 UNK H   1     -38.503  13.925 -25.421  0.00  0.00    +0.000 C 
ATOM     18  O22 UNK H   1     -37.696  11.735 -25.759  0.00  0.00    +0.000 OA
ENDROOT
BRANCH   6  19
ATOM     19  O18 UNK H   1     -38.544  22.050 -25.224  0.00  0.00    +0.000 OA
ATOM     20  H9  UNK H   1     -39.560  21.993 -24.962  0.00  0.00    +0.000 HD
ENDBRANCH   6  19
BRANCH   5  21
ATOM     21  O19 UNK H   1     -35.731  21.693 -25.531  0.00  0.00    +0.000 OA
ATOM     22  H10 UNK H   1     -35.937  22.232 -26.408  0.00  0.00    +0.000 HD
ENDBRANCH   5  21
BRANCH   7  23
ATOM     23  O20 UNK H   1     -34.933  16.968 -27.375  0.00  0.00    +0.000 OA
ATOM     24  H11 UNK H   1     -34.123  16.462 -27.810  0.00  0.00    +0.000 HD
ENDBRANCH   7  23
BRANCH  17  25
ATOM     25  O21 UNK H   1     -39.814  13.494 -25.256  0.00  0.00    +0.000 OA
ATOM     26  H12 UNK H   1     -39.856  12.450 -25.363  0.00  0.00    +0.000 HD
ENDBRANCH  17  25
TORSDOF 4
ENDMDL
MODEL 4
REMARK VINA RESULT:    -5.895      2.336      6.041
REMARK INTER + INTRA:          -6.584
REMARK INTER:                  -6.584
REMARK INTRA:                   0.000
REMARK UNBOUND:                 0.000
REMARK  Name = data/B/Ligand/Hematein.pdb
REMARK  4 active torsions:
REMARK  status: ('A' for Active; 'I' for Inactive)
REMARK    1  A    between atoms: C5_5  and  O19_19
REMARK    2  A    between atoms: C6_6  and  O18_18
REMARK    3  A    between atoms: C7_7  and  O20_20
REMARK    4  A    between atoms: C17_17  and  O21_21
REMARK                            x       y       z     vdW  Elec       q    Type
REMARK                         _______ _______ _______ _____ _____    ______ ____
ROOT
ATOM      1  C1  UNK H   1     -36.788  18.147 -25.023  0.00  0.00    +0.000 A 
ATOM      2  C2  UNK H   1     -36.175  19.328 -24.953  0.00  0.00    +0.000 A 
ATOM      3  C3  UNK H   1     -38.245  18.088 -25.253  0.00  0.00    +0.000 A 
ATOM      4  C4  UNK H   1     -36.946  20.564 -25.091  0.00  0.00    +0.000 A 
ATOM      5  C5  UNK H   1     -38.943  19.216 -25.364  0.00  0.00    +0.000 A 
ATOM      6  C6  UNK H   1     -38.264  20.510 -25.277  0.00  0.00    +0.000 A 
ATOM      7  C7  UNK H   1     -36.910  15.640 -24.725  0.00  0.00    +0.000 C 
ATOM      8  C8  UNK H   1     -36.100  16.864 -24.840  0.00  0.00    +0.000 C 
ATOM      9  C9  UNK H   1     -38.167  15.654 -25.594  0.00  0.00    +0.000 C 
ATOM     10  O10 UNK H   1     -38.895  16.860 -25.384  0.00  0.00    +0.000 OA
ATOM     11  C11 UNK H   1     -35.907  14.457 -24.914  0.00  0.00    +0.000 C 
ATOM     12  C12 UNK H   1     -34.650  15.179 -24.521  0.00  0.00    +0.000 C 
ATOM     13  C13 UNK H   1     -34.814  16.587 -24.619  0.00  0.00    +0.000 C 
ATOM     14  C14 UNK H   1     -33.476  14.619 -24.258  0.00  0.00    +0.000 C 
ATOM     15  C15 UNK H   1     -32.327  15.510 -24.034  0.00  0.00    +0.000 C 
ATOM     16  C16 UNK H   1     -33.676  17.496 -24.498  0.00  0.00    +0.000 C 
ATOM     17  C17 UNK H   1     -32.481  16.977 -24.208  0.00  0.00    +0.000 C 
ATOM     18  O22 UNK H   1     -31.220  15.034 -23.757  0.00  0.00    +0.000 OA
ENDROOT
BRANCH   6  19
ATOM     19  O18 UNK H   1     -38.995  21.686 -25.404  0.00  0.00    +0.000 OA
ATOM     20  H9  UNK H   1     -38.502  22.336 -26.066  0.00  0.00    +0.000 HD
ENDBRANCH   6  19
BRANCH   5  21
ATOM     21  O19 UNK H   1     -40.313  19.164 -25.589  0.00  0.00    +0.000 OA
ATOM     22  H10 UNK H   1     -40.577  19.877 -26.313  0.00  0.00    +0.000 HD
ENDBRANCH   5  21
BRANCH   7  23
ATOM     23  O20 UNK H   1     -37.312  15.649 -23.354  0.00  0.00    +0.000 OA
ATOM     24  H11 UNK H   1     -38.329  15.900 -23.288  0.00  0.00    +0.000 HD
ENDBRANCH   7  23
BRANCH  17  25
ATOM     25  O21 UNK H   1     -31.379  17.811 -24.068  0.00  0.00    +0.000 OA
ATOM     26  H12 UNK H   1     -30.525  17.234 -23.865  0.00  0.00    +0.000 HD
ENDBRANCH  17  25
TORSDOF 4
ENDMDL
MODEL 5
REMARK VINA RESULT:    -4.764      1.244      5.929
REMARK INTER + INTRA:          -5.321
REMARK INTER:                  -5.321
REMARK INTRA:                   0.000
REMARK UNBOUND:                 0.000
REMARK  Name = data/B/Ligand/Hematein.pdb
REMARK  4 active torsions:
REMARK  status: ('A' for Active; 'I' for Inactive)
REMARK    1  A    between atoms: C5_5  and  O19_19
REMARK    2  A    between atoms: C6_6  and  O18_18
REMARK    3  A    between atoms: C7_7  and  O20_20
REMARK    4  A    between atoms: C17_17  and  O21_21
REMARK                            x       y       z     vdW  Elec       q    Type
REMARK                         _______ _______ _______ _____ _____    ______ ____
ROOT
ATOM      1  C1  UNK H   1     -36.985  14.594 -25.960  0.00  0.00    +0.000 A 
ATOM      2  C2  UNK H   1     -36.286  13.560 -26.428  0.00  0.00    +0.000 A 
ATOM      3  C3  UNK H   1     -38.393  14.772 -26.365  0.00  0.00    +0.000 A 
ATOM      4  C4  UNK H   1     -36.909  12.612 -27.353  0.00  0.00    +0.000 A 
ATOM      5  C5  UNK H   1     -38.950  13.914 -27.217  0.00  0.00    +0.000 A 
ATOM      6  C6  UNK H   1     -38.173  12.786 -27.735  0.00  0.00    +0.000 A 
ATOM      7  C7  UNK H   1     -37.220  16.824 -24.795  0.00  0.00    +0.000 C 
ATOM      8  C8  UNK H   1     -36.421  15.619 -25.075  0.00  0.00    +0.000 C 
ATOM      9  C9  UNK H   1     -38.722  16.556 -24.705  0.00  0.00    +0.000 C 
ATOM     10  O10 UNK H   1     -39.156  15.817 -25.842  0.00  0.00    +0.000 OA
ATOM     11  C11 UNK H   1     -36.528  17.509 -23.573  0.00  0.00    +0.000 C 
ATOM     12  C12 UNK H   1     -35.159  16.914 -23.743  0.00  0.00    +0.000 C 
ATOM     13  C13 UNK H   1     -35.205  15.740 -24.543  0.00  0.00    +0.000 C 
ATOM     14  C14 UNK H   1     -34.052  17.309 -23.126  0.00  0.00    +0.000 C 
ATOM     15  C15 UNK H   1     -32.837  16.502 -23.317  0.00  0.00    +0.000 C 
ATOM     16  C16 UNK H   1     -34.042  14.864 -24.675  0.00  0.00    +0.000 C 
ATOM     17  C17 UNK H   1     -32.900  15.237 -24.092  0.00  0.00    +0.000 C 
ATOM     18  O22 UNK H   1     -31.776  16.847 -22.785  0.00  0.00    +0.000 OA
ENDROOT
BRANCH   6  19
ATOM     19  O18 UNK H   1     -38.762  11.886 -28.616  0.00  0.00    +0.000 OA
ATOM     20  H9  UNK H   1     -39.458  11.293 -28.099  0.00  0.00    +0.000 HD
ENDBRANCH   6  19
BRANCH   5  21
ATOM     21  O19 UNK H   1     -40.278  14.075 -27.594  0.00  0.00    +0.000 OA
ATOM     22  H10 UNK H   1     -40.706  14.859 -27.044  0.00  0.00    +0.000 HD
ENDBRANCH   5  21
BRANCH   7  23
ATOM     23  O20 UNK H   1     -36.977  17.643 -25.941  0.00  0.00    +0.000 OA
ATOM     24  H11 UNK H   1     -36.099  17.325 -26.419  0.00  0.00    +0.000 HD
ENDBRANCH   7  23
BRANCH  17  25
ATOM     25  O21 UNK H   1     -31.770  14.438 -24.210  0.00  0.00    +0.000 OA
ATOM     26  H12 UNK H   1     -30.909  15.038 -24.157  0.00  0.00    +0.000 HD
ENDBRANCH  17  25
TORSDOF 4
ENDMDL
