MODEL 1
REMARK VINA RESULT:    -7.488      0.000      0.000
REMARK INTER + INTRA:         -10.983
REMARK INTER:                 -10.553
REMARK INTRA:                  -0.430
REMARK UNBOUND:                -0.430
REMARK  Name = data/C/Ligand/Ketoconazole.pdb
REMARK  8 active torsions:
REMARK  status: ('A' for Active; 'I' for Inactive)
REMARK    1  A    between atoms: O5_5  and  C16_16
REMARK    2  A    between atoms: O5_5  and  C24_24
REMARK    3  A    between atoms: N7_7  and  C21_21
REMARK    4  A    between atoms: N9_9  and  C14_14
REMARK    5  A    between atoms: C11_11  and  C14_14
REMARK    6  A    between atoms: C11_11  and  C15_15
REMARK    7  A    between atoms: C12_12  and  C16_16
REMARK    8  A    between atoms: C25_25  and  C36_36
REMARK                            x       y       z     vdW  Elec       q    Type
REMARK                         _______ _______ _______ _____ _____    ______ ____
ROOT
ATOM      1  O3  UNK K   1     -13.615 -48.238 -21.272  0.00  0.00    +0.000 OA
ATOM      2  O4  UNK K   1     -11.595 -47.076 -21.229  0.00  0.00    +0.000 OA
ATOM      3  C11 UNK K   1     -12.552 -47.641 -22.163  0.00  0.00    +0.000 C 
ATOM      4  C12 UNK K   1     -13.108 -48.061 -19.893  0.00  0.00    +0.000 C 
ATOM      5  C13 UNK K   1     -11.603 -48.105 -20.159  0.00  0.00    +0.000 C 
ENDROOT
BRANCH   3   8
ATOM      6 CL1  UNK K   1     -13.911 -44.768 -21.356  0.00  0.00    +0.000 Cl
ATOM      7 CL2  UNK K   1     -14.883 -44.009 -26.560  0.00  0.00    +0.000 Cl
ATOM      8  C15 UNK K   1     -13.213 -46.627 -23.199  0.00  0.00    +0.000 A 
ATOM      9  C22 UNK K   1     -13.742 -45.411 -22.932  0.00  0.00    +0.000 A 
ATOM     10  C23 UNK K   1     -13.152 -47.045 -24.617  0.00  0.00    +0.000 A 
ATOM     11  C32 UNK K   1     -14.303 -44.590 -24.028  0.00  0.00    +0.000 A 
ATOM     12  C33 UNK K   1     -13.663 -46.293 -25.592  0.00  0.00    +0.000 A 
ATOM     13  C34 UNK K   1     -14.241 -44.999 -25.290  0.00  0.00    +0.000 A 
ENDBRANCH   3   8
BRANCH   3  14
ATOM     14  C14 UNK K   1     -11.780 -48.835 -22.900  0.00  0.00    +0.000 C 
BRANCH  14  15
ATOM     15  N9  UNK K   1     -12.350 -50.204 -22.753  0.00  0.00    +0.000 N 
ATOM     16  N10 UNK K   1     -13.801 -51.805 -22.835  0.00  0.00    +0.000 NA
ATOM     17  C28 UNK K   1     -11.867 -51.196 -21.900  0.00  0.00    +0.000 A 
ATOM     18  C29 UNK K   1     -13.568 -50.631 -23.289  0.00  0.00    +0.000 A 
ATOM     19  C35 UNK K   1     -12.752 -52.192 -21.959  0.00  0.00    +0.000 A 
ENDBRANCH  14  15
ENDBRANCH   3  14
BRANCH   4  20
ATOM     20  C16 UNK K   1     -13.764 -49.089 -18.764  0.00  0.00    +0.000 C 
BRANCH  20  21
ATOM     21  O5  UNK K   1     -15.205 -48.793 -18.408  0.00  0.00    +0.000 OA
BRANCH  21  23
ATOM     22  C21 UNK K   1     -18.297 -49.612 -21.473  0.00  0.00    +0.000 A 
ATOM     23  C24 UNK K   1     -16.320 -49.053 -19.406  0.00  0.00    +0.000 A 
ATOM     24  C26 UNK K   1     -18.672 -49.390 -20.199  0.00  0.00    +0.000 A 
ATOM     25  C27 UNK K   1     -16.859 -49.553 -21.781  0.00  0.00    +0.000 A 
ATOM     26  C30 UNK K   1     -17.630 -49.083 -19.105  0.00  0.00    +0.000 A 
ATOM     27  C31 UNK K   1     -15.945 -49.305 -20.828  0.00  0.00    +0.000 A 
BRANCH  22  29
ATOM     28  O6  UNK K   1     -22.041 -52.026 -26.259  0.00  0.00    +0.000 OA
ATOM     29  N7  UNK K   1     -19.270 -49.927 -22.555  0.00  0.00    +0.000 N 
ATOM     30  N8  UNK K   1     -21.067 -50.547 -24.768  0.00  0.00    +0.000 N 
ATOM     31  C17 UNK K   1     -19.975 -51.200 -22.603  0.00  0.00    +0.000 C 
ATOM     32  C18 UNK K   1     -19.510 -48.965 -23.629  0.00  0.00    +0.000 C 
ATOM     33  C19 UNK K   1     -20.335 -51.601 -24.096  0.00  0.00    +0.000 C 
ATOM     34  C20 UNK K   1     -20.917 -49.183 -24.311  0.00  0.00    +0.000 C 
ATOM     35  C25 UNK K   1     -21.928 -50.857 -25.870  0.00  0.00    +0.000 C 
ATOM     36  C36 UNK K   1     -22.730 -49.775 -26.553  0.00  0.00    +0.000 C 
ENDBRANCH  22  29
ENDBRANCH  21  23
ENDBRANCH  20  21
ENDBRANCH   4  20
TORSDOF 7
ENDMDL
