MODEL 1
REMARK VINA RESULT:    -6.993      0.000      0.000
REMARK INTER + INTRA:          -7.811
REMARK INTER:                  -7.811
REMARK INTRA:                   0.000
REMARK UNBOUND:                 0.000
REMARK  Name = data/C/Ligand/Hematein.pdb
REMARK  4 active torsions:
REMARK  status: ('A' for Active; 'I' for Inactive)
REMARK    1  A    between atoms: C5_5  and  O19_19
REMARK    2  A    between atoms: C6_6  and  O18_18
REMARK    3  A    between atoms: C7_7  and  O20_20
REMARK    4  A    between atoms: C17_17  and  O21_21
REMARK                            x       y       z     vdW  Elec       q    Type
REMARK                         _______ _______ _______ _____ _____    ______ ____
ROOT
ATOM      1  C1  UNK H   1     -14.545 -48.670 -22.032  0.00  0.00    +0.000 A 
ATOM      2  C2  UNK H   1     -15.721 -48.112 -21.745  0.00  0.00    +0.000 A 
ATOM      3  C3  UNK H   1     -14.018 -49.754 -21.178  0.00  0.00    +0.000 A 
ATOM      4  C4  UNK H   1     -16.482 -48.563 -20.579  0.00  0.00    +0.000 A 
ATOM      5  C5  UNK H   1     -14.710 -50.150 -20.112  0.00  0.00    +0.000 A 
ATOM      6  C6  UNK H   1     -15.996 -49.526 -19.797  0.00  0.00    +0.000 A 
ATOM      7  C7  UNK H   1     -12.327 -48.780 -23.238  0.00  0.00    +0.000 C 
ATOM      8  C8  UNK H   1     -13.694 -48.240 -23.147  0.00  0.00    +0.000 C 
ATOM      9  C9  UNK H   1     -12.209 -50.231 -22.773  0.00  0.00    +0.000 C 
ATOM     10  O10 UNK H   1     -12.816 -50.386 -21.494  0.00  0.00    +0.000 OA
ATOM     11  C11 UNK H   1     -11.838 -48.435 -24.682  0.00  0.00    +0.000 C 
ATOM     12  C12 UNK H   1     -12.758 -47.277 -24.947  0.00  0.00    +0.000 C 
ATOM     13  C13 UNK H   1     -13.883 -47.306 -24.079  0.00  0.00    +0.000 C 
ATOM     14  C14 UNK H   1     -12.653 -46.409 -25.945  0.00  0.00    +0.000 C 
ATOM     15  C15 UNK H   1     -13.739 -45.431 -26.118  0.00  0.00    +0.000 C 
ATOM     16  C16 UNK H   1     -15.022 -46.413 -24.282  0.00  0.00    +0.000 C 
ATOM     17  C17 UNK H   1     -14.948 -45.505 -25.258  0.00  0.00    +0.000 C 
ATOM     18  O22 UNK H   1     -13.672 -44.584 -27.015  0.00  0.00    +0.000 OA
ENDROOT
BRANCH   6  19
ATOM     19  O18 UNK H   1     -16.720 -49.950 -18.688  0.00  0.00    +0.000 OA
ATOM     20  H9  UNK H   1     -17.698 -50.196 -18.982  0.00  0.00    +0.000 HD
ENDBRANCH   6  19
BRANCH   5  21
ATOM     21  O19 UNK H   1     -14.220 -51.175 -19.311  0.00  0.00    +0.000 OA
ATOM     22  H10 UNK H   1     -14.669 -51.124 -18.363  0.00  0.00    +0.000 HD
ENDBRANCH   5  21
BRANCH   7  23
ATOM     23  O20 UNK H   1     -11.595 -47.956 -22.329  0.00  0.00    +0.000 OA
ATOM     24  H11 UNK H   1     -12.198 -47.153 -22.020  0.00  0.00    +0.000 HD
ENDBRANCH   7  23
BRANCH  17  25
ATOM     25  O21 UNK H   1     -16.005 -44.629 -25.470  0.00  0.00    +0.000 OA
ATOM     26  H12 UNK H   1     -15.957 -43.847 -24.771  0.00  0.00    +0.000 HD
ENDBRANCH  17  25
TORSDOF 4
ENDMDL
MODEL 2
REMARK VINA RESULT:    -6.806      2.010      2.424
REMARK INTER + INTRA:          -7.602
REMARK INTER:                  -7.602
REMARK INTRA:                   0.000
REMARK UNBOUND:                 0.000
REMARK  Name = data/C/Ligand/Hematein.pdb
REMARK  4 active torsions:
REMARK  status: ('A' for Active; 'I' for Inactive)
REMARK    1  A    between atoms: C5_5  and  O19_19
REMARK    2  A    between atoms: C6_6  and  O18_18
REMARK    3  A    between atoms: C7_7  and  O20_20
REMARK    4  A    between atoms: C17_17  and  O21_21
REMARK                            x       y       z     vdW  Elec       q    Type
REMARK                         _______ _______ _______ _____ _____    ______ ____
ROOT
ATOM      1  C1  UNK H   1     -13.509 -49.115 -20.481  0.00  0.00    +0.000 A 
ATOM      2  C2  UNK H   1     -13.720 -48.328 -19.427  0.00  0.00    +0.000 A 
ATOM      3  C3  UNK H   1     -13.256 -50.556 -20.283  0.00  0.00    +0.000 A 
ATOM      4  C4  UNK H   1     -13.686 -48.888 -18.075  0.00  0.00    +0.000 A 
ATOM      5  C5  UNK H   1     -13.214 -51.056 -19.050  0.00  0.00    +0.000 A 
ATOM      6  C6  UNK H   1     -13.436 -50.184 -17.896  0.00  0.00    +0.000 A 
ATOM      7  C7  UNK H   1     -13.019 -49.543 -22.923  0.00  0.00    +0.000 C 
ATOM      8  C8  UNK H   1     -13.470 -48.626 -21.864  0.00  0.00    +0.000 C 
ATOM      9  C9  UNK H   1     -13.438 -50.995 -22.695  0.00  0.00    +0.000 C 
ATOM     10  O10 UNK H   1     -13.088 -51.405 -21.378  0.00  0.00    +0.000 OA
ATOM     11  C11 UNK H   1     -13.438 -48.866 -24.268  0.00  0.00    +0.000 C 
ATOM     12  C12 UNK H   1     -13.519 -47.449 -23.776  0.00  0.00    +0.000 C 
ATOM     13  C13 UNK H   1     -13.655 -47.403 -22.362  0.00  0.00    +0.000 C 
ATOM     14  C14 UNK H   1     -13.608 -46.362 -24.533  0.00  0.00    +0.000 C 
ATOM     15  C15 UNK H   1     -13.825 -45.073 -23.857  0.00  0.00    +0.000 C 
ATOM     16  C16 UNK H   1     -13.967 -46.154 -21.669  0.00  0.00    +0.000 C 
ATOM     17  C17 UNK H   1     -14.040 -45.032 -22.388  0.00  0.00    +0.000 C 
ATOM     18  O22 UNK H   1     -13.886 -44.031 -24.518  0.00  0.00    +0.000 OA
ENDROOT
BRANCH   6  19
ATOM     19  O18 UNK H   1     -13.402 -50.713 -16.610  0.00  0.00    +0.000 OA
ATOM     20  H9  UNK H   1     -13.878 -51.649 -16.604  0.00  0.00    +0.000 HD
ENDBRANCH   6  19
BRANCH   5  21
ATOM     21  O19 UNK H   1     -12.984 -52.414 -18.861  0.00  0.00    +0.000 OA
ATOM     22  H10 UNK H   1     -12.291 -52.547 -18.084  0.00  0.00    +0.000 HD
ENDBRANCH   5  21
BRANCH   7  23
ATOM     23  O20 UNK H   1     -11.595 -49.466 -22.829  0.00  0.00    +0.000 OA
ATOM     24  H11 UNK H   1     -11.328 -48.658 -22.215  0.00  0.00    +0.000 HD
ENDBRANCH   7  23
BRANCH  17  25
ATOM     25  O21 UNK H   1     -14.318 -43.824 -21.761  0.00  0.00    +0.000 OA
ATOM     26  H12 UNK H   1     -13.977 -43.032 -22.360  0.00  0.00    +0.000 HD
ENDBRANCH  17  25
TORSDOF 4
ENDMDL
MODEL 3
REMARK VINA RESULT:    -6.609      1.966      3.491
REMARK INTER + INTRA:          -7.382
REMARK INTER:                  -7.382
REMARK INTRA:                   0.000
REMARK UNBOUND:                 0.000
REMARK  Name = data/C/Ligand/Hematein.pdb
REMARK  4 active torsions:
REMARK  status: ('A' for Active; 'I' for Inactive)
REMARK    1  A    between atoms: C5_5  and  O19_19
REMARK    2  A    between atoms: C6_6  and  O18_18
REMARK    3  A    between atoms: C7_7  and  O20_20
REMARK    4  A    between atoms: C17_17  and  O21_21
REMARK                            x       y       z     vdW  Elec       q    Type
REMARK                         _______ _______ _______ _____ _____    ______ ____
ROOT
ATOM      1  C1  UNK H   1     -12.737 -49.118 -23.207  0.00  0.00    +0.000 A 
ATOM      2  C2  UNK H   1     -12.015 -49.875 -24.033  0.00  0.00    +0.000 A 
ATOM      3  C3  UNK H   1     -13.119 -49.636 -21.879  0.00  0.00    +0.000 A 
ATOM      4  C4  UNK H   1     -11.613 -51.223 -23.629  0.00  0.00    +0.000 A 
ATOM      5  C5  UNK H   1     -12.761 -50.868 -21.523  0.00  0.00    +0.000 A 
ATOM      6  C6  UNK H   1     -11.976 -51.698 -22.438  0.00  0.00    +0.000 A 
ATOM      7  C7  UNK H   1     -14.191 -47.126 -22.654  0.00  0.00    +0.000 C 
ATOM      8  C8  UNK H   1     -13.228 -47.780 -23.556  0.00  0.00    +0.000 C 
ATOM      9  C9  UNK H   1     -13.952 -47.433 -21.176  0.00  0.00    +0.000 C 
ATOM     10  O10 UNK H   1     -13.827 -48.837 -20.981  0.00  0.00    +0.000 OA
ATOM     11  C11 UNK H   1     -14.221 -45.626 -23.092  0.00  0.00    +0.000 C 
ATOM     12  C12 UNK H   1     -13.735 -45.807 -24.502  0.00  0.00    +0.000 C 
ATOM     13  C13 UNK H   1     -13.059 -47.048 -24.657  0.00  0.00    +0.000 C 
ATOM     14  C14 UNK H   1     -13.773 -44.895 -25.465  0.00  0.00    +0.000 C 
ATOM     15  C15 UNK H   1     -13.112 -45.216 -26.739  0.00  0.00    +0.000 C 
ATOM     16  C16 UNK H   1     -12.311 -47.358 -25.874  0.00  0.00    +0.000 C 
ATOM     17  C17 UNK H   1     -12.345 -46.480 -26.879  0.00  0.00    +0.000 C 
ATOM     18  O22 UNK H   1     -13.148 -44.410 -27.675  0.00  0.00    +0.000 OA
ENDROOT
BRANCH   6  19
ATOM     19  O18 UNK H   1     -11.596 -52.981 -22.058  0.00  0.00    +0.000 OA
ATOM     20  H9  UNK H   1     -11.096 -52.939 -21.134  0.00  0.00    +0.000 HD
ENDBRANCH   6  19
BRANCH   5  21
ATOM     21  O19 UNK H   1     -13.112 -51.356 -20.270  0.00  0.00    +0.000 OA
ATOM     22  H10 UNK H   1     -12.386 -52.042 -19.945  0.00  0.00    +0.000 HD
ENDBRANCH   5  21
BRANCH   7  23
ATOM     23  O20 UNK H   1     -15.438 -47.711 -23.038  0.00  0.00    +0.000 OA
ATOM     24  H11 UNK H   1     -15.580 -47.586 -24.070  0.00  0.00    +0.000 HD
ENDBRANCH   7  23
BRANCH  17  25
ATOM     25  O21 UNK H   1     -11.660 -46.750 -28.057  0.00  0.00    +0.000 OA
ATOM     26  H12 UNK H   1     -11.452 -47.778 -28.114  0.00  0.00    +0.000 HD
ENDBRANCH  17  25
TORSDOF 4
ENDMDL
MODEL 4
REMARK VINA RESULT:    -6.524      1.875      3.296
REMARK INTER + INTRA:          -7.287
REMARK INTER:                  -7.287
REMARK INTRA:                   0.000
REMARK UNBOUND:                 0.000
REMARK  Name = data/C/Ligand/Hematein.pdb
REMARK  4 active torsions:
REMARK  status: ('A' for Active; 'I' for Inactive)
REMARK    1  A    between atoms: C5_5  and  O19_19
REMARK    2  A    between atoms: C6_6  and  O18_18
REMARK    3  A    between atoms: C7_7  and  O20_20
REMARK    4  A    between atoms: C17_17  and  O21_21
REMARK                            x       y       z     vdW  Elec       q    Type
REMARK                         _______ _______ _______ _____ _____    ______ ____
ROOT
ATOM      1  C1  UNK H   1     -12.978 -49.420 -22.078  0.00  0.00    +0.000 A 
ATOM      2  C2  UNK H   1     -12.519 -50.202 -23.054  0.00  0.00    +0.000 A 
ATOM      3  C3  UNK H   1     -13.166 -49.972 -20.722  0.00  0.00    +0.000 A 
ATOM      4  C4  UNK H   1     -12.215 -51.608 -22.787  0.00  0.00    +0.000 A 
ATOM      5  C5  UNK H   1     -12.900 -51.255 -20.488  0.00  0.00    +0.000 A 
ATOM      6  C6  UNK H   1     -12.405 -52.111 -21.568  0.00  0.00    +0.000 A 
ATOM      7  C7  UNK H   1     -14.052 -47.316 -21.180  0.00  0.00    +0.000 C 
ATOM      8  C8  UNK H   1     -13.360 -48.017 -22.274  0.00  0.00    +0.000 C 
ATOM      9  C9  UNK H   1     -13.581 -47.736 -19.789  0.00  0.00    +0.000 C 
ATOM     10  O10 UNK H   1     -13.593 -49.155 -19.675  0.00  0.00    +0.000 OA
ATOM     11  C11 UNK H   1     -13.981 -45.798 -21.547  0.00  0.00    +0.000 C 
ATOM     12  C12 UNK H   1     -13.791 -45.946 -23.029  0.00  0.00    +0.000 C 
ATOM     13  C13 UNK H   1     -13.311 -47.243 -23.359  0.00  0.00    +0.000 C 
ATOM     14  C14 UNK H   1     -13.897 -44.979 -23.932  0.00  0.00    +0.000 C 
ATOM     15  C15 UNK H   1     -13.528 -45.295 -25.321  0.00  0.00    +0.000 C 
ATOM     16  C16 UNK H   1     -12.845 -47.561 -24.707  0.00  0.00    +0.000 C 
ATOM     17  C17 UNK H   1     -12.958 -46.626 -25.652  0.00  0.00    +0.000 C 
ATOM     18  O22 UNK H   1     -13.638 -44.434 -26.200  0.00  0.00    +0.000 OA
ENDROOT
BRANCH   6  19
ATOM     19  O18 UNK H   1     -12.119 -53.449 -21.317  0.00  0.00    +0.000 OA
ATOM     20  H9  UNK H   1     -11.494 -53.821 -22.075  0.00  0.00    +0.000 HD
ENDBRANCH   6  19
BRANCH   5  21
ATOM     21  O19 UNK H   1     -13.068 -51.776 -19.211  0.00  0.00    +0.000 OA
ATOM     22  H10 UNK H   1     -14.064 -52.085 -19.086  0.00  0.00    +0.000 HD
ENDBRANCH   5  21
BRANCH   7  23
ATOM     23  O20 UNK H   1     -15.409 -47.734 -21.340  0.00  0.00    +0.000 OA
ATOM     24  H11 UNK H   1     -15.710 -47.575 -22.334  0.00  0.00    +0.000 HD
ENDBRANCH   7  23
BRANCH  17  25
ATOM     25  O21 UNK H   1     -12.542 -46.898 -26.950  0.00  0.00    +0.000 OA
ATOM     26  H12 UNK H   1     -13.377 -46.941 -27.584  0.00  0.00    +0.000 HD
ENDBRANCH  17  25
TORSDOF 4
ENDMDL
MODEL 5
REMARK VINA RESULT:    -6.445      2.268      6.717
REMARK INTER + INTRA:          -7.198
REMARK INTER:                  -7.198
REMARK INTRA:                   0.000
REMARK UNBOUND:                 0.000
REMARK  Name = data/C/Ligand/Hematein.pdb
REMARK  4 active torsions:
REMARK  status: ('A' for Active; 'I' for Inactive)
REMARK    1  A    between atoms: C5_5  and  O19_19
REMARK    2  A    between atoms: C6_6  and  O18_18
REMARK    3  A    between atoms: C7_7  and  O20_20
REMARK    4  A    between atoms: C17_17  and  O21_21
REMARK                            x       y       z     vdW  Elec       q    Type
REMARK                         _______ _______ _______ _____ _____    ______ ____
ROOT
ATOM      1  C1  UNK H   1     -13.576 -48.523 -22.227  0.00  0.00    +0.000 A 
ATOM      2  C2  UNK H   1     -13.136 -49.100 -23.345  0.00  0.00    +0.000 A 
ATOM      3  C3  UNK H   1     -14.031 -47.119 -22.254  0.00  0.00    +0.000 A 
ATOM      4  C4  UNK H   1     -13.091 -48.339 -24.594  0.00  0.00    +0.000 A 
ATOM      5  C5  UNK H   1     -13.974 -46.428 -23.390  0.00  0.00    +0.000 A 
ATOM      6  C6  UNK H   1     -13.481 -47.065 -24.613  0.00  0.00    +0.000 A 
ATOM      7  C7  UNK H   1     -13.905 -48.398 -19.724  0.00  0.00    +0.000 C 
ATOM      8  C8  UNK H   1     -13.602 -49.197 -20.924  0.00  0.00    +0.000 C 
ATOM      9  C9  UNK H   1     -14.924 -47.287 -19.970  0.00  0.00    +0.000 C 
ATOM     10  O10 UNK H   1     -14.545 -46.516 -21.106  0.00  0.00    +0.000 OA
ATOM     11  C11 UNK H   1     -14.216 -49.437 -18.599  0.00  0.00    +0.000 C 
ATOM     12  C12 UNK H   1     -13.478 -50.608 -19.181  0.00  0.00    +0.000 C 
ATOM     13  C13 UNK H   1     -13.263 -50.438 -20.576  0.00  0.00    +0.000 C 
ATOM     14  C14 UNK H   1     -13.182 -51.738 -18.550  0.00  0.00    +0.000 C 
ATOM     15  C15 UNK H   1     -12.582 -52.826 -19.339  0.00  0.00    +0.000 C 
ATOM     16  C16 UNK H   1     -12.759 -51.531 -21.406  0.00  0.00    +0.000 C 
ATOM     17  C17 UNK H   1     -12.424 -52.676 -20.808  0.00  0.00    +0.000 C 
ATOM     18  O22 UNK H   1     -12.263 -53.885 -18.789  0.00  0.00    +0.000 OA
ENDROOT
BRANCH   6  19
ATOM     19  O18 UNK H   1     -13.433 -46.343 -25.800  0.00  0.00    +0.000 OA
ATOM     20  H9  UNK H   1     -13.822 -46.928 -26.582  0.00  0.00    +0.000 HD
ENDBRANCH   6  19
BRANCH   5  21
ATOM     21  O19 UNK H   1     -14.409 -45.109 -23.421  0.00  0.00    +0.000 OA
ATOM     22  H10 UNK H   1     -13.731 -44.504 -22.895  0.00  0.00    +0.000 HD
ENDBRANCH   5  21
BRANCH   7  23
ATOM     23  O20 UNK H   1     -12.647 -47.794 -19.415  0.00  0.00    +0.000 OA
ATOM     24  H11 UNK H   1     -11.872 -48.364 -19.834  0.00  0.00    +0.000 HD
ENDBRANCH   7  23
BRANCH  17  25
ATOM     25  O21 UNK H   1     -11.925 -53.731 -21.563  0.00  0.00    +0.000 OA
ATOM     26  H12 UNK H   1     -12.706 -54.393 -21.799  0.00  0.00    +0.000 HD
ENDBRANCH  17  25
TORSDOF 4
ENDMDL
MODEL 6
REMARK VINA RESULT:    -6.408      1.986      6.641
REMARK INTER + INTRA:          -7.157
REMARK INTER:                  -7.157
REMARK INTRA:                   0.000
REMARK UNBOUND:                 0.000
REMARK  Name = data/C/Ligand/Hematein.pdb
REMARK  4 active torsions:
REMARK  status: ('A' for Active; 'I' for Inactive)
REMARK    1  A    between atoms: C5_5  and  O19_19
REMARK    2  A    between atoms: C6_6  and  O18_18
REMARK    3  A    between atoms: C7_7  and  O20_20
REMARK    4  A    between atoms: C17_17  and  O21_21
REMARK                            x       y       z     vdW  Elec       q    Type
REMARK                         _______ _______ _______ _____ _____    ______ ____
ROOT
ATOM      1  C1  UNK H   1     -13.027 -46.212 -24.497  0.00  0.00    +0.000 A 
ATOM      2  C2  UNK H   1     -12.957 -47.183 -25.407  0.00  0.00    +0.000 A 
ATOM      3  C3  UNK H   1     -12.623 -44.838 -24.856  0.00  0.00    +0.000 A 
ATOM      4  C4  UNK H   1     -12.468 -46.891 -26.755  0.00  0.00    +0.000 A 
ATOM      5  C5  UNK H   1     -12.167 -44.582 -26.080  0.00  0.00    +0.000 A 
ATOM      6  C6  UNK H   1     -12.083 -45.655 -27.072  0.00  0.00    +0.000 A 
ATOM      7  C7  UNK H   1     -13.286 -45.333 -22.142  0.00  0.00    +0.000 C 
ATOM      8  C8  UNK H   1     -13.452 -46.430 -23.110  0.00  0.00    +0.000 C 
ATOM      9  C9  UNK H   1     -13.510 -43.946 -22.744  0.00  0.00    +0.000 C 
ATOM     10  O10 UNK H   1     -12.742 -43.799 -23.933  0.00  0.00    +0.000 OA
ATOM     11  C11 UNK H   1     -14.148 -45.737 -20.902  0.00  0.00    +0.000 C 
ATOM     12  C12 UNK H   1     -14.173 -47.221 -21.136  0.00  0.00    +0.000 C 
ATOM     13  C13 UNK H   1     -13.868 -47.534 -22.488  0.00  0.00    +0.000 C 
ATOM     14  C14 UNK H   1     -14.569 -48.143 -20.267  0.00  0.00    +0.000 C 
ATOM     15  C15 UNK H   1     -14.658 -49.534 -20.737  0.00  0.00    +0.000 C 
ATOM     16  C16 UNK H   1     -14.039 -48.887 -23.012  0.00  0.00    +0.000 C 
ATOM     17  C17 UNK H   1     -14.410 -49.851 -22.166  0.00  0.00    +0.000 C 
ATOM     18  O22 UNK H   1     -14.994 -50.430 -19.956  0.00  0.00    +0.000 OA
ENDROOT
BRANCH   6  19
ATOM     19  O18 UNK H   1     -11.616 -45.381 -28.353  0.00  0.00    +0.000 OA
ATOM     20  H9  UNK H   1     -12.415 -45.420 -29.033  0.00  0.00    +0.000 HD
ENDBRANCH   6  19
BRANCH   5  21
ATOM     21  O19 UNK H   1     -11.793 -43.288 -26.424  0.00  0.00    +0.000 OA
ATOM     22  H10 UNK H   1     -11.474 -43.269 -27.423  0.00  0.00    +0.000 HD
ENDBRANCH   5  21
BRANCH   7  23
ATOM     23  O20 UNK H   1     -11.912 -45.443 -21.765  0.00  0.00    +0.000 OA
ATOM     24  H11 UNK H   1     -11.315 -45.494 -22.627  0.00  0.00    +0.000 HD
ENDBRANCH   7  23
BRANCH  17  25
ATOM     25  O21 UNK H   1     -14.566 -51.153 -22.626  0.00  0.00    +0.000 OA
ATOM     26  H12 UNK H   1     -13.624 -51.609 -22.712  0.00  0.00    +0.000 HD
ENDBRANCH  17  25
TORSDOF 4
ENDMDL
MODEL 7
REMARK VINA RESULT:    -6.310      1.890      6.197
REMARK INTER + INTRA:          -7.048
REMARK INTER:                  -7.048
REMARK INTRA:                   0.000
REMARK UNBOUND:                 0.000
REMARK  Name = data/C/Ligand/Hematein.pdb
REMARK  4 active torsions:
REMARK  status: ('A' for Active; 'I' for Inactive)
REMARK    1  A    between atoms: C5_5  and  O19_19
REMARK    2  A    between atoms: C6_6  and  O18_18
REMARK    3  A    between atoms: C7_7  and  O20_20
REMARK    4  A    between atoms: C17_17  and  O21_21
REMARK                            x       y       z     vdW  Elec       q    Type
REMARK                         _______ _______ _______ _____ _____    ______ ____
ROOT
ATOM      1  C1  UNK H   1     -14.055 -45.768 -23.969  0.00  0.00    +0.000 A 
ATOM      2  C2  UNK H   1     -15.246 -45.888 -24.555  0.00  0.00    +0.000 A 
ATOM      3  C3  UNK H   1     -13.053 -44.837 -24.525  0.00  0.00    +0.000 A 
ATOM      4  C4  UNK H   1     -15.554 -45.109 -25.755  0.00  0.00    +0.000 A 
ATOM      5  C5  UNK H   1     -13.335 -44.142 -25.625  0.00  0.00    +0.000 A 
ATOM      6  C6  UNK H   1     -14.642 -44.286 -26.269  0.00  0.00    +0.000 A 
ATOM      7  C7  UNK H   1     -12.238 -46.491 -22.368  0.00  0.00    +0.000 C 
ATOM      8  C8  UNK H   1     -13.645 -46.551 -22.798  0.00  0.00    +0.000 C 
ATOM      9  C9  UNK H   1     -11.595 -45.119 -22.566  0.00  0.00    +0.000 C 
ATOM     10  O10 UNK H   1     -11.822 -44.658 -23.894  0.00  0.00    +0.000 OA
ATOM     11  C11 UNK H   1     -12.214 -47.108 -20.933  0.00  0.00    +0.000 C 
ATOM     12  C12 UNK H   1     -13.469 -47.927 -21.032  0.00  0.00    +0.000 C 
ATOM     13  C13 UNK H   1     -14.308 -47.457 -22.079  0.00  0.00    +0.000 C 
ATOM     14  C14 UNK H   1     -13.856 -48.872 -20.184  0.00  0.00    +0.000 C 
ATOM     15  C15 UNK H   1     -15.191 -49.459 -20.375  0.00  0.00    +0.000 C 
ATOM     16  C16 UNK H   1     -15.675 -47.949 -22.237  0.00  0.00    +0.000 C 
ATOM     17  C17 UNK H   1     -16.096 -48.919 -21.422  0.00  0.00    +0.000 C 
ATOM     18  O22 UNK H   1     -15.582 -50.362 -19.628  0.00  0.00    +0.000 OA
ENDROOT
BRANCH   6  19
ATOM     19  O18 UNK H   1     -14.936 -43.549 -27.412  0.00  0.00    +0.000 OA
ATOM     20  H9  UNK H   1     -14.178 -43.691 -28.125  0.00  0.00    +0.000 HD
ENDBRANCH   6  19
BRANCH   5  21
ATOM     21  O19 UNK H   1     -12.397 -43.259 -26.146  0.00  0.00    +0.000 OA
ATOM     22  H10 UNK H   1     -11.430 -43.604 -25.926  0.00  0.00    +0.000 HD
ENDBRANCH   5  21
BRANCH   7  23
ATOM     23  O20 UNK H   1     -11.595 -47.419 -23.245  0.00  0.00    +0.000 OA
ATOM     24  H11 UNK H   1     -11.452 -46.972 -24.185  0.00  0.00    +0.000 HD
ENDBRANCH   7  23
BRANCH  17  25
ATOM     25  O21 UNK H   1     -17.384 -49.424 -21.554  0.00  0.00    +0.000 OA
ATOM     26  H12 UNK H   1     -17.499 -49.847 -22.508  0.00  0.00    +0.000 HD
ENDBRANCH  17  25
TORSDOF 4
ENDMDL
MODEL 8
REMARK VINA RESULT:    -6.232      2.193      6.357
REMARK INTER + INTRA:          -6.960
REMARK INTER:                  -6.960
REMARK INTRA:                   0.000
REMARK UNBOUND:                 0.000
REMARK  Name = data/C/Ligand/Hematein.pdb
REMARK  4 active torsions:
REMARK  status: ('A' for Active; 'I' for Inactive)
REMARK    1  A    between atoms: C5_5  and  O19_19
REMARK    2  A    between atoms: C6_6  and  O18_18
REMARK    3  A    between atoms: C7_7  and  O20_20
REMARK    4  A    between atoms: C17_17  and  O21_21
REMARK                            x       y       z     vdW  Elec       q    Type
REMARK                         _______ _______ _______ _____ _____    ______ ____
ROOT
ATOM      1  C1  UNK H   1     -13.241 -46.829 -24.209  0.00  0.00    +0.000 A 
ATOM      2  C2  UNK H   1     -12.789 -47.155 -25.420  0.00  0.00    +0.000 A 
ATOM      3  C3  UNK H   1     -13.694 -45.449 -23.942  0.00  0.00    +0.000 A 
ATOM      4  C4  UNK H   1     -12.729 -46.145 -26.477  0.00  0.00    +0.000 A 
ATOM      5  C5  UNK H   1     -13.624 -44.533 -24.904  0.00  0.00    +0.000 A 
ATOM      6  C6  UNK H   1     -13.117 -44.896 -26.229  0.00  0.00    +0.000 A 
ATOM      7  C7  UNK H   1     -13.597 -47.238 -21.741  0.00  0.00    +0.000 C 
ATOM      8  C8  UNK H   1     -13.281 -47.764 -23.080  0.00  0.00    +0.000 C 
ATOM      9  C9  UNK H   1     -14.612 -46.096 -21.755  0.00  0.00    +0.000 C 
ATOM     10  O10 UNK H   1     -14.220 -45.103 -22.697  0.00  0.00    +0.000 OA
ATOM     11  C11 UNK H   1     -13.921 -48.491 -20.866  0.00  0.00    +0.000 C 
ATOM     12  C12 UNK H   1     -13.178 -49.514 -21.677  0.00  0.00    +0.000 C 
ATOM     13  C13 UNK H   1     -12.947 -49.052 -23.001  0.00  0.00    +0.000 C 
ATOM     14  C14 UNK H   1     -12.889 -50.753 -21.298  0.00  0.00    +0.000 C 
ATOM     15  C15 UNK H   1     -12.282 -51.650 -22.294  0.00  0.00    +0.000 C 
ATOM     16  C16 UNK H   1     -12.435 -49.944 -24.039  0.00  0.00    +0.000 C 
ATOM     17  C17 UNK H   1     -12.107 -51.192 -23.695  0.00  0.00    +0.000 C 
ATOM     18  O22 UNK H   1     -11.970 -52.803 -21.978  0.00  0.00    +0.000 OA
ENDROOT
BRANCH   6  19
ATOM     19  O18 UNK H   1     -13.056 -43.937 -27.235  0.00  0.00    +0.000 OA
ATOM     20  H9  UNK H   1     -12.056 -43.795 -27.523  0.00  0.00    +0.000 HD
ENDBRANCH   6  19
BRANCH   5  21
ATOM     21  O19 UNK H   1     -14.057 -43.235 -24.658  0.00  0.00    +0.000 OA
ATOM     22  H10 UNK H   1     -13.639 -42.585 -25.369  0.00  0.00    +0.000 HD
ENDBRANCH   5  21
BRANCH   7  23
ATOM     23  O20 UNK H   1     -12.342 -46.717 -21.297  0.00  0.00    +0.000 OA
ATOM     24  H11 UNK H   1     -11.574 -47.386 -21.555  0.00  0.00    +0.000 HD
ENDBRANCH   7  23
BRANCH  17  25
ATOM     25  O21 UNK H   1     -11.602 -52.063 -24.652  0.00  0.00    +0.000 OA
ATOM     26  H12 UNK H   1     -10.747 -51.642 -25.094  0.00  0.00    +0.000 HD
ENDBRANCH  17  25
TORSDOF 4
ENDMDL
MODEL 9
REMARK VINA RESULT:    -6.017      2.503      6.322
REMARK INTER + INTRA:          -6.720
REMARK INTER:                  -6.720
REMARK INTRA:                   0.000
REMARK UNBOUND:                 0.000
REMARK  Name = data/C/Ligand/Hematein.pdb
REMARK  4 active torsions:
REMARK  status: ('A' for Active; 'I' for Inactive)
REMARK    1  A    between atoms: C5_5  and  O19_19
REMARK    2  A    between atoms: C6_6  and  O18_18
REMARK    3  A    between atoms: C7_7  and  O20_20
REMARK    4  A    between atoms: C17_17  and  O21_21
REMARK                            x       y       z     vdW  Elec       q    Type
REMARK                         _______ _______ _______ _____ _____    ______ ____
ROOT
ATOM      1  C1  UNK H   1     -13.552 -48.408 -21.478  0.00  0.00    +0.000 A 
ATOM      2  C2  UNK H   1     -13.705 -47.839 -20.282  0.00  0.00    +0.000 A 
ATOM      3  C3  UNK H   1     -13.749 -47.607 -22.702  0.00  0.00    +0.000 A 
ATOM      4  C4  UNK H   1     -14.080 -46.428 -20.183  0.00  0.00    +0.000 A 
ATOM      5  C5  UNK H   1     -14.103 -46.328 -22.605  0.00  0.00    +0.000 A 
ATOM      6  C6  UNK H   1     -14.279 -45.712 -21.289  0.00  0.00    +0.000 A 
ATOM      7  C7  UNK H   1     -13.300 -50.390 -23.025  0.00  0.00    +0.000 C 
ATOM      8  C8  UNK H   1     -13.233 -49.827 -21.666  0.00  0.00    +0.000 C 
ATOM      9  C9  UNK H   1     -12.862 -49.413 -24.114  0.00  0.00    +0.000 C 
ATOM     10  O10 UNK H   1     -13.541 -48.171 -23.961  0.00  0.00    +0.000 OA
ATOM     11  C11 UNK H   1     -12.566 -51.767 -22.942  0.00  0.00    +0.000 C 
ATOM     12  C12 UNK H   1     -12.729 -52.007 -21.468  0.00  0.00    +0.000 C 
ATOM     13  C13 UNK H   1     -13.002 -50.794 -20.778  0.00  0.00    +0.000 C 
ATOM     14  C14 UNK H   1     -12.505 -53.150 -20.832  0.00  0.00    +0.000 C 
ATOM     15  C15 UNK H   1     -12.579 -53.142 -19.363  0.00  0.00    +0.000 C 
ATOM     16  C16 UNK H   1     -12.987 -50.732 -19.318  0.00  0.00    +0.000 C 
ATOM     17  C17 UNK H   1     -12.793 -51.864 -18.638  0.00  0.00    +0.000 C 
ATOM     18  O22 UNK H   1     -12.408 -54.189 -18.729  0.00  0.00    +0.000 OA
ENDROOT
BRANCH   6  19
ATOM     19  O18 UNK H   1     -14.638 -44.372 -21.192  0.00  0.00    +0.000 OA
ATOM     20  H9  UNK H   1     -15.340 -44.252 -20.420  0.00  0.00    +0.000 HD
ENDBRANCH   6  19
BRANCH   5  21
ATOM     21  O19 UNK H   1     -14.281 -45.569 -23.756  0.00  0.00    +0.000 OA
ATOM     22  H10 UNK H   1     -13.881 -44.610 -23.610  0.00  0.00    +0.000 HD
ENDBRANCH   5  21
BRANCH   7  23
ATOM     23  O20 UNK H   1     -14.694 -50.655 -23.193  0.00  0.00    +0.000 OA
ATOM     24  H11 UNK H   1     -15.078 -51.085 -22.316  0.00  0.00    +0.000 HD
ENDBRANCH   7  23
BRANCH  17  25
ATOM     25  O21 UNK H   1     -12.790 -51.845 -17.248  0.00  0.00    +0.000 OA
ATOM     26  H12 UNK H   1     -12.292 -52.696 -16.887  0.00  0.00    +0.000 HD
ENDBRANCH  17  25
TORSDOF 4
ENDMDL
