MODEL 1
REMARK VINA RESULT:    -8.192      0.000      0.000
REMARK INTER + INTRA:          -9.150
REMARK INTER:                  -9.150
REMARK INTRA:                   0.000
REMARK UNBOUND:                 0.000
REMARK  Name = data/C/Ligand/Brazilin.pdb
REMARK  4 active torsions:
REMARK  status: ('A' for Active; 'I' for Inactive)
REMARK    1  A    between atoms: O1_1  and  C6_6
REMARK    2  A    between atoms: O3_3  and  C17_17
REMARK    3  A    between atoms: O4_4  and  C18_18
REMARK    4  A    between atoms: O5_5  and  C21_21
REMARK                            x       y       z     vdW  Elec       q    Type
REMARK                         _______ _______ _______ _____ _____    ______ ____
ROOT
ATOM      1  O2  UNK B   0     -16.221 -49.155 -18.850  0.00  0.00    +0.000 OA
ATOM      2  C6  UNK B   0     -14.217 -48.904 -20.238  0.00  0.00    +0.000 C 
ATOM      3  C7  UNK B   0     -15.046 -49.058 -21.546  0.00  0.00    +0.000 C 
ATOM      4  C8  UNK B   0     -14.036 -47.388 -19.975  0.00  0.00    +0.000 C 
ATOM      5  C9  UNK B   0     -14.733 -47.750 -22.236  0.00  0.00    +0.000 A 
ATOM      6  C10 UNK B   0     -14.170 -46.823 -21.353  0.00  0.00    +0.000 A 
ATOM      7  C11 UNK B   0     -14.889 -49.616 -19.070  0.00  0.00    +0.000 C 
ATOM      8  C12 UNK B   0     -16.516 -49.274 -21.268  0.00  0.00    +0.000 A 
ATOM      9  C13 UNK B   0     -17.017 -49.289 -19.958  0.00  0.00    +0.000 A 
ATOM     10  C14 UNK B   0     -14.924 -47.422 -23.571  0.00  0.00    +0.000 A 
ATOM     11  C15 UNK B   0     -13.824 -45.547 -21.773  0.00  0.00    +0.000 A 
ATOM     12  C16 UNK B   0     -17.418 -49.472 -22.326  0.00  0.00    +0.000 A 
ATOM     13  C17 UNK B   0     -14.569 -46.143 -24.005  0.00  0.00    +0.000 A 
ATOM     14  C18 UNK B   0     -14.027 -45.210 -23.111  0.00  0.00    +0.000 A 
ATOM     15  C19 UNK B   0     -18.388 -49.422 -19.716  0.00  0.00    +0.000 A 
ATOM     16  C20 UNK B   0     -18.785 -49.628 -22.083  0.00  0.00    +0.000 A 
ATOM     17  C21 UNK B   0     -19.270 -49.592 -20.780  0.00  0.00    +0.000 A 
ENDROOT
BRANCH   2  18
ATOM     18  O1  UNK B   0     -12.931 -49.509 -20.412  0.00  0.00    +0.000 OA
ATOM     19  H28 UNK B   0     -12.838 -49.761 -21.346  0.00  0.00    +0.000 HD
ENDBRANCH   2  18
BRANCH  13  20
ATOM     20  O3  UNK B   0     -14.757 -45.809 -25.315  0.00  0.00    +0.000 OA
ATOM     21  H33 UNK B   0     -15.230 -46.533 -25.761  0.00  0.00    +0.000 HD
ENDBRANCH  13  20
BRANCH  14  22
ATOM     22  O4  UNK B   0     -13.687 -43.962 -23.541  0.00  0.00    +0.000 OA
ATOM     23  H34 UNK B   0     -12.996 -43.603 -22.958  0.00  0.00    +0.000 HD
ENDBRANCH  14  22
BRANCH  17  24
ATOM     24  O5  UNK B   0     -20.603 -49.734 -20.544  0.00  0.00    +0.000 OA
ATOM     25  H35 UNK B   0     -20.812 -49.348 -19.676  0.00  0.00    +0.000 HD
ENDBRANCH  17  24
TORSDOF 4
ENDMDL
MODEL 2
REMARK VINA RESULT:    -7.808      1.625      2.542
REMARK INTER + INTRA:          -8.721
REMARK INTER:                  -8.721
REMARK INTRA:                   0.000
REMARK UNBOUND:                 0.000
REMARK  Name = data/C/Ligand/Brazilin.pdb
REMARK  4 active torsions:
REMARK  status: ('A' for Active; 'I' for Inactive)
REMARK    1  A    between atoms: O1_1  and  C6_6
REMARK    2  A    between atoms: O3_3  and  C17_17
REMARK    3  A    between atoms: O4_4  and  C18_18
REMARK    4  A    between atoms: O5_5  and  C21_21
REMARK                            x       y       z     vdW  Elec       q    Type
REMARK                         _______ _______ _______ _____ _____    ______ ____
ROOT
ATOM      1  O2  UNK B   0     -12.884 -49.440 -20.307  0.00  0.00    +0.000 OA
ATOM      2  C6  UNK B   0     -12.332 -48.915 -22.636  0.00  0.00    +0.000 C 
ATOM      3  C7  UNK B   0     -13.837 -48.806 -23.018  0.00  0.00    +0.000 C 
ATOM      4  C8  UNK B   0     -11.817 -47.482 -22.354  0.00  0.00    +0.000 C 
ATOM      5  C9  UNK B   0     -13.897 -47.387 -23.534  0.00  0.00    +0.000 A 
ATOM      6  C10 UNK B   0     -12.767 -46.654 -23.159  0.00  0.00    +0.000 A 
ATOM      7  C11 UNK B   0     -12.129 -49.846 -21.447  0.00  0.00    +0.000 C 
ATOM      8  C12 UNK B   0     -14.746 -49.075 -21.840  0.00  0.00    +0.000 A 
ATOM      9  C13 UNK B   0     -14.228 -49.351 -20.566  0.00  0.00    +0.000 A 
ATOM     10  C14 UNK B   0     -14.892 -46.799 -24.303  0.00  0.00    +0.000 A 
ATOM     11  C15 UNK B   0     -12.625 -45.319 -23.509  0.00  0.00    +0.000 A 
ATOM     12  C16 UNK B   0     -16.141 -49.059 -22.000  0.00  0.00    +0.000 A 
ATOM     13  C17 UNK B   0     -14.753 -45.458 -24.670  0.00  0.00    +0.000 A 
ATOM     14  C18 UNK B   0     -13.629 -44.722 -24.272  0.00  0.00    +0.000 A 
ATOM     15  C19 UNK B   0     -15.077 -49.531 -19.470  0.00  0.00    +0.000 A 
ATOM     16  C20 UNK B   0     -16.989 -49.262 -20.909  0.00  0.00    +0.000 A 
ATOM     17  C21 UNK B   0     -16.458 -49.488 -19.643  0.00  0.00    +0.000 A 
ENDROOT
BRANCH   2  18
ATOM     18  O1  UNK B   0     -11.599 -49.471 -23.733  0.00  0.00    +0.000 OA
ATOM     19  H28 UNK B   0     -11.520 -48.790 -24.422  0.00  0.00    +0.000 HD
ENDBRANCH   2  18
BRANCH  13  20
ATOM     20  O3  UNK B   0     -15.727 -44.871 -25.422  0.00  0.00    +0.000 OA
ATOM     21  H33 UNK B   0     -16.474 -45.487 -25.510  0.00  0.00    +0.000 HD
ENDBRANCH  13  20
BRANCH  14  22
ATOM     22  O4  UNK B   0     -13.502 -43.413 -24.630  0.00  0.00    +0.000 OA
ATOM     23  H34 UNK B   0     -13.563 -42.859 -23.833  0.00  0.00    +0.000 HD
ENDBRANCH  14  22
BRANCH  17  24
ATOM     24  O5  UNK B   0     -17.285 -49.675 -18.579  0.00  0.00    +0.000 OA
ATOM     25  H35 UNK B   0     -18.141 -50.008 -18.901  0.00  0.00    +0.000 HD
ENDBRANCH  17  24
TORSDOF 4
ENDMDL
MODEL 3
REMARK VINA RESULT:    -7.291      2.582      5.238
REMARK INTER + INTRA:          -8.144
REMARK INTER:                  -8.144
REMARK INTRA:                   0.000
REMARK UNBOUND:                 0.000
REMARK  Name = data/C/Ligand/Brazilin.pdb
REMARK  4 active torsions:
REMARK  status: ('A' for Active; 'I' for Inactive)
REMARK    1  A    between atoms: O1_1  and  C6_6
REMARK    2  A    between atoms: O3_3  and  C17_17
REMARK    3  A    between atoms: O4_4  and  C18_18
REMARK    4  A    between atoms: O5_5  and  C21_21
REMARK                            x       y       z     vdW  Elec       q    Type
REMARK                         _______ _______ _______ _____ _____    ______ ____
ROOT
ATOM      1  O2  UNK B   0     -13.494 -49.884 -18.789  0.00  0.00    +0.000 OA
ATOM      2  C6  UNK B   0     -15.068 -48.176 -19.571  0.00  0.00    +0.000 C 
ATOM      3  C7  UNK B   0     -15.153 -48.832 -20.980  0.00  0.00    +0.000 C 
ATOM      4  C8  UNK B   0     -16.274 -48.687 -18.744  0.00  0.00    +0.000 C 
ATOM      5  C9  UNK B   0     -16.634 -49.119 -21.071  0.00  0.00    +0.000 A 
ATOM      6  C10 UNK B   0     -17.253 -49.036 -19.819  0.00  0.00    +0.000 A 
ATOM      7  C11 UNK B   0     -13.735 -48.481 -18.898  0.00  0.00    +0.000 C 
ATOM      8  C12 UNK B   0     -14.278 -50.060 -21.092  0.00  0.00    +0.000 A 
ATOM      9  C13 UNK B   0     -13.526 -50.522 -20.002  0.00  0.00    +0.000 A 
ATOM     10  C14 UNK B   0     -17.379 -49.415 -22.204  0.00  0.00    +0.000 A 
ATOM     11  C15 UNK B   0     -18.609 -49.284 -19.669  0.00  0.00    +0.000 A 
ATOM     12  C16 UNK B   0     -14.195 -50.766 -22.303  0.00  0.00    +0.000 A 
ATOM     13  C17 UNK B   0     -18.748 -49.655 -22.063  0.00  0.00    +0.000 A 
ATOM     14  C18 UNK B   0     -19.358 -49.594 -20.804  0.00  0.00    +0.000 A 
ATOM     15  C19 UNK B   0     -12.773 -51.697 -20.097  0.00  0.00    +0.000 A 
ATOM     16  C20 UNK B   0     -13.425 -51.926 -22.404  0.00  0.00    +0.000 A 
ATOM     17  C21 UNK B   0     -12.722 -52.397 -21.299  0.00  0.00    +0.000 A 
ENDROOT
BRANCH   2  18
ATOM     18  O1  UNK B   0     -15.154 -46.752 -19.700  0.00  0.00    +0.000 OA
ATOM     19  H28 UNK B   0     -16.043 -46.475 -19.420  0.00  0.00    +0.000 HD
ENDBRANCH   2  18
BRANCH  13  20
ATOM     20  O3  UNK B   0     -19.487 -49.952 -23.171  0.00  0.00    +0.000 OA
ATOM     21  H33 UNK B   0     -20.292 -50.425 -22.897  0.00  0.00    +0.000 HD
ENDBRANCH  13  20
BRANCH  14  22
ATOM     22  O4  UNK B   0     -20.694 -49.834 -20.674  0.00  0.00    +0.000 OA
ATOM     23  H34 UNK B   0     -21.150 -49.525 -21.475  0.00  0.00    +0.000 HD
ENDBRANCH  14  22
BRANCH  17  24
ATOM     24  O5  UNK B   0     -11.981 -53.534 -21.396  0.00  0.00    +0.000 OA
ATOM     25  H35 UNK B   0     -11.461 -53.502 -22.218  0.00  0.00    +0.000 HD
ENDBRANCH  17  24
TORSDOF 4
ENDMDL
MODEL 4
REMARK VINA RESULT:    -7.005      1.448      5.807
REMARK INTER + INTRA:          -7.825
REMARK INTER:                  -7.825
REMARK INTRA:                   0.000
REMARK UNBOUND:                 0.000
REMARK  Name = data/C/Ligand/Brazilin.pdb
REMARK  4 active torsions:
REMARK  status: ('A' for Active; 'I' for Inactive)
REMARK    1  A    between atoms: O1_1  and  C6_6
REMARK    2  A    between atoms: O3_3  and  C17_17
REMARK    3  A    between atoms: O4_4  and  C18_18
REMARK    4  A    between atoms: O5_5  and  C21_21
REMARK                            x       y       z     vdW  Elec       q    Type
REMARK                         _______ _______ _______ _____ _____    ______ ____
ROOT
ATOM      1  O2  UNK B   0     -14.113 -48.117 -23.400  0.00  0.00    +0.000 OA
ATOM      2  C6  UNK B   0     -14.892 -49.811 -21.809  0.00  0.00    +0.000 C 
ATOM      3  C7  UNK B   0     -15.021 -48.754 -20.674  0.00  0.00    +0.000 C 
ATOM      4  C8  UNK B   0     -16.293 -49.989 -22.444  0.00  0.00    +0.000 C 
ATOM      5  C9  UNK B   0     -16.487 -48.886 -20.329  0.00  0.00    +0.000 A 
ATOM      6  C10 UNK B   0     -17.190 -49.576 -21.322  0.00  0.00    +0.000 A 
ATOM      7  C11 UNK B   0     -13.841 -49.398 -22.832  0.00  0.00    +0.000 C 
ATOM      8  C12 UNK B   0     -14.617 -47.372 -21.133  0.00  0.00    +0.000 A 
ATOM      9  C13 UNK B   0     -14.213 -47.130 -22.454  0.00  0.00    +0.000 A 
ATOM     10  C14 UNK B   0     -17.140 -48.434 -19.191  0.00  0.00    +0.000 A 
ATOM     11  C15 UNK B   0     -18.556 -49.793 -21.218  0.00  0.00    +0.000 A 
ATOM     12  C16 UNK B   0     -14.631 -46.292 -20.235  0.00  0.00    +0.000 A 
ATOM     13  C17 UNK B   0     -18.514 -48.657 -19.073  0.00  0.00    +0.000 A 
ATOM     14  C18 UNK B   0     -19.218 -49.328 -20.082  0.00  0.00    +0.000 A 
ATOM     15  C19 UNK B   0     -13.905 -45.836 -22.885  0.00  0.00    +0.000 A 
ATOM     16  C20 UNK B   0     -14.303 -45.002 -20.660  0.00  0.00    +0.000 A 
ATOM     17  C21 UNK B   0     -13.950 -44.773 -21.986  0.00  0.00    +0.000 A 
ENDROOT
BRANCH   2  18
ATOM     18  O1  UNK B   0     -14.465 -51.060 -21.253  0.00  0.00    +0.000 OA
ATOM     19  H28 UNK B   0     -14.862 -51.151 -20.370  0.00  0.00    +0.000 HD
ENDBRANCH   2  18
BRANCH  13  20
ATOM     20  O3  UNK B   0     -19.166 -48.212 -17.961  0.00  0.00    +0.000 OA
ATOM     21  H33 UNK B   0     -18.927 -47.282 -17.804  0.00  0.00    +0.000 HD
ENDBRANCH  13  20
BRANCH  14  22
ATOM     22  O4  UNK B   0     -20.560 -49.539 -19.961  0.00  0.00    +0.000 OA
ATOM     23  H34 UNK B   0     -20.977 -48.731 -19.617  0.00  0.00    +0.000 HD
ENDBRANCH  14  22
BRANCH  17  24
ATOM     24  O5  UNK B   0     -13.640 -43.515 -22.402  0.00  0.00    +0.000 OA
ATOM     25  H35 UNK B   0     -13.558 -43.514 -23.372  0.00  0.00    +0.000 HD
ENDBRANCH  17  24
TORSDOF 4
ENDMDL
MODEL 5
REMARK VINA RESULT:    -6.940      2.292      4.960
REMARK INTER + INTRA:          -7.752
REMARK INTER:                  -7.752
REMARK INTRA:                   0.000
REMARK UNBOUND:                 0.000
REMARK  Name = data/C/Ligand/Brazilin.pdb
REMARK  4 active torsions:
REMARK  status: ('A' for Active; 'I' for Inactive)
REMARK    1  A    between atoms: O1_1  and  C6_6
REMARK    2  A    between atoms: O3_3  and  C17_17
REMARK    3  A    between atoms: O4_4  and  C18_18
REMARK    4  A    between atoms: O5_5  and  C21_21
REMARK                            x       y       z     vdW  Elec       q    Type
REMARK                         _______ _______ _______ _____ _____    ______ ____
ROOT
ATOM      1  O2  UNK B   0     -17.159 -49.450 -22.480  0.00  0.00    +0.000 OA
ATOM      2  C6  UNK B   0     -14.950 -48.744 -21.687  0.00  0.00    +0.000 C 
ATOM      3  C7  UNK B   0     -15.466 -48.605 -20.226  0.00  0.00    +0.000 C 
ATOM      4  C8  UNK B   0     -14.286 -50.137 -21.819  0.00  0.00    +0.000 C 
ATOM      5  C9  UNK B   0     -14.549 -49.569 -19.508  0.00  0.00    +0.000 A 
ATOM      6  C10 UNK B   0     -13.894 -50.421 -20.404  0.00  0.00    +0.000 A 
ATOM      7  C11 UNK B   0     -16.077 -48.544 -22.693  0.00  0.00    +0.000 C 
ATOM      8  C12 UNK B   0     -16.935 -48.943 -20.105  0.00  0.00    +0.000 A 
ATOM      9  C13 UNK B   0     -17.682 -49.361 -21.215  0.00  0.00    +0.000 A 
ATOM     10  C14 UNK B   0     -14.306 -49.662 -18.145  0.00  0.00    +0.000 A 
ATOM     11  C15 UNK B   0     -13.019 -51.400 -19.957  0.00  0.00    +0.000 A 
ATOM     12  C16 UNK B   0     -17.588 -48.839 -18.866  0.00  0.00    +0.000 A 
ATOM     13  C17 UNK B   0     -13.418 -50.638 -17.687  0.00  0.00    +0.000 A 
ATOM     14  C18 UNK B   0     -12.782 -51.505 -18.586  0.00  0.00    +0.000 A 
ATOM     15  C19 UNK B   0     -19.022 -49.735 -21.079  0.00  0.00    +0.000 A 
ATOM     16  C20 UNK B   0     -18.933 -49.191 -18.734  0.00  0.00    +0.000 A 
ATOM     17  C21 UNK B   0     -19.647 -49.649 -19.838  0.00  0.00    +0.000 A 
ENDROOT
BRANCH   2  18
ATOM     18  O1  UNK B   0     -13.973 -47.730 -21.948  0.00  0.00    +0.000 OA
ATOM     19  H28 UNK B   0     -13.376 -48.055 -22.644  0.00  0.00    +0.000 HD
ENDBRANCH   2  18
BRANCH  13  20
ATOM     20  O3  UNK B   0     -13.176 -50.741 -16.348  0.00  0.00    +0.000 OA
ATOM     21  H33 UNK B   0     -13.456 -51.620 -16.042  0.00  0.00    +0.000 HD
ENDBRANCH  13  20
BRANCH  14  22
ATOM     22  O4  UNK B   0     -11.920 -52.458 -18.131  0.00  0.00    +0.000 OA
ATOM     23  H34 UNK B   0     -11.188 -52.551 -18.765  0.00  0.00    +0.000 HD
ENDBRANCH  14  22
BRANCH  17  24
ATOM     24  O5  UNK B   0     -20.955 -50.002 -19.706  0.00  0.00    +0.000 OA
ATOM     25  H35 UNK B   0     -21.508 -49.207 -19.810  0.00  0.00    +0.000 HD
ENDBRANCH  17  24
TORSDOF 4
ENDMDL
MODEL 6
REMARK VINA RESULT:    -6.917      2.253      5.265
REMARK INTER + INTRA:          -7.726
REMARK INTER:                  -7.726
REMARK INTRA:                   0.000
REMARK UNBOUND:                 0.000
REMARK  Name = data/C/Ligand/Brazilin.pdb
REMARK  4 active torsions:
REMARK  status: ('A' for Active; 'I' for Inactive)
REMARK    1  A    between atoms: O1_1  and  C6_6
REMARK    2  A    between atoms: O3_3  and  C17_17
REMARK    3  A    between atoms: O4_4  and  C18_18
REMARK    4  A    between atoms: O5_5  and  C21_21
REMARK                            x       y       z     vdW  Elec       q    Type
REMARK                         _______ _______ _______ _____ _____    ______ ____
ROOT
ATOM      1  O2  UNK B   0     -15.001 -46.704 -19.383  0.00  0.00    +0.000 OA
ATOM      2  C6  UNK B   0     -15.747 -48.864 -20.268  0.00  0.00    +0.000 C 
ATOM      3  C7  UNK B   0     -15.285 -48.488 -21.705  0.00  0.00    +0.000 C 
ATOM      4  C8  UNK B   0     -14.617 -49.698 -19.616  0.00  0.00    +0.000 C 
ATOM      5  C9  UNK B   0     -14.299 -49.600 -21.986  0.00  0.00    +0.000 A 
ATOM      6  C10 UNK B   0     -13.931 -50.270 -20.815  0.00  0.00    +0.000 A 
ATOM      7  C11 UNK B   0     -16.091 -47.622 -19.455  0.00  0.00    +0.000 C 
ATOM      8  C12 UNK B   0     -14.686 -47.101 -21.768  0.00  0.00    +0.000 A 
ATOM      9  C13 UNK B   0     -14.559 -46.308 -20.619  0.00  0.00    +0.000 A 
ATOM     10  C14 UNK B   0     -13.783 -49.994 -23.212  0.00  0.00    +0.000 A 
ATOM     11  C15 UNK B   0     -13.019 -51.314 -20.840  0.00  0.00    +0.000 A 
ATOM     12  C16 UNK B   0     -14.245 -46.572 -22.992  0.00  0.00    +0.000 A 
ATOM     13  C17 UNK B   0     -12.871 -51.052 -23.248  0.00  0.00    +0.000 A 
ATOM     14  C18 UNK B   0     -12.488 -51.705 -22.069  0.00  0.00    +0.000 A 
ATOM     15  C19 UNK B   0     -13.943 -45.054 -20.677  0.00  0.00    +0.000 A 
ATOM     16  C20 UNK B   0     -13.649 -45.310 -23.054  0.00  0.00    +0.000 A 
ATOM     17  C21 UNK B   0     -13.489 -44.556 -21.895  0.00  0.00    +0.000 A 
ENDROOT
BRANCH   2  18
ATOM     18  O1  UNK B   0     -16.937 -49.658 -20.341  0.00  0.00    +0.000 OA
ATOM     19  H28 UNK B   0     -17.664 -49.153 -19.939  0.00  0.00    +0.000 HD
ENDBRANCH   2  18
BRANCH  13  20
ATOM     20  O3  UNK B   0     -12.355 -51.444 -24.449  0.00  0.00    +0.000 OA
ATOM     21  H33 UNK B   0     -12.298 -52.414 -24.468  0.00  0.00    +0.000 HD
ENDBRANCH  13  20
BRANCH  14  22
ATOM     22  O4  UNK B   0     -11.595 -52.734 -22.111  0.00  0.00    +0.000 OA
ATOM     23  H34 UNK B   0     -11.031 -52.631 -22.897  0.00  0.00    +0.000 HD
ENDBRANCH  14  22
BRANCH  17  24
ATOM     24  O5  UNK B   0     -12.900 -43.331 -21.954  0.00  0.00    +0.000 OA
ATOM     25  H35 UNK B   0     -12.991 -42.895 -21.089  0.00  0.00    +0.000 HD
ENDBRANCH  17  24
TORSDOF 4
ENDMDL
MODEL 7
REMARK VINA RESULT:    -6.739      2.168      5.771
REMARK INTER + INTRA:          -7.527
REMARK INTER:                  -7.527
REMARK INTRA:                   0.000
REMARK UNBOUND:                 0.000
REMARK  Name = data/C/Ligand/Brazilin.pdb
REMARK  4 active torsions:
REMARK  status: ('A' for Active; 'I' for Inactive)
REMARK    1  A    between atoms: O1_1  and  C6_6
REMARK    2  A    between atoms: O3_3  and  C17_17
REMARK    3  A    between atoms: O4_4  and  C18_18
REMARK    4  A    between atoms: O5_5  and  C21_21
REMARK                            x       y       z     vdW  Elec       q    Type
REMARK                         _______ _______ _______ _____ _____    ______ ____
ROOT
ATOM      1  O2  UNK B   0     -12.421 -49.755 -24.070  0.00  0.00    +0.000 OA
ATOM      2  C6  UNK B   0     -12.448 -49.932 -21.626  0.00  0.00    +0.000 C 
ATOM      3  C7  UNK B   0     -12.610 -48.392 -21.470  0.00  0.00    +0.000 C 
ATOM      4  C8  UNK B   0     -13.859 -50.563 -21.532  0.00  0.00    +0.000 C 
ATOM      5  C9  UNK B   0     -13.907 -48.321 -20.695  0.00  0.00    +0.000 A 
ATOM      6  C10 UNK B   0     -14.598 -49.536 -20.735  0.00  0.00    +0.000 A 
ATOM      7  C11 UNK B   0     -11.744 -50.284 -22.931  0.00  0.00    +0.000 C 
ATOM      8  C12 UNK B   0     -12.648 -47.683 -22.804  0.00  0.00    +0.000 A 
ATOM      9  C13 UNK B   0     -12.574 -48.394 -24.011  0.00  0.00    +0.000 A 
ATOM     10  C14 UNK B   0     -14.421 -47.243 -19.988  0.00  0.00    +0.000 A 
ATOM     11  C15 UNK B   0     -15.825 -49.687 -20.106  0.00  0.00    +0.000 A 
ATOM     12  C16 UNK B   0     -12.752 -46.284 -22.863  0.00  0.00    +0.000 A 
ATOM     13  C17 UNK B   0     -15.651 -47.389 -19.343  0.00  0.00    +0.000 A 
ATOM     14  C18 UNK B   0     -16.351 -48.601 -19.405  0.00  0.00    +0.000 A 
ATOM     15  C19 UNK B   0     -12.677 -47.735 -25.239  0.00  0.00    +0.000 A 
ATOM     16  C20 UNK B   0     -12.832 -45.623 -24.091  0.00  0.00    +0.000 A 
ATOM     17  C21 UNK B   0     -12.805 -46.349 -25.278  0.00  0.00    +0.000 A 
ENDROOT
BRANCH   2  18
ATOM     18  O1  UNK B   0     -11.634 -50.439 -20.562  0.00  0.00    +0.000 OA
ATOM     19  H28 UNK B   0     -12.090 -50.266 -19.722  0.00  0.00    +0.000 HD
ENDBRANCH   2  18
BRANCH  13  20
ATOM     20  O3  UNK B   0     -16.166 -46.334 -18.649  0.00  0.00    +0.000 OA
ATOM     21  H33 UNK B   0     -15.548 -45.586 -18.704  0.00  0.00    +0.000 HD
ENDBRANCH  13  20
BRANCH  14  22
ATOM     22  O4  UNK B   0     -17.553 -48.735 -18.777  0.00  0.00    +0.000 OA
ATOM     23  H34 UNK B   0     -17.765 -49.681 -18.696  0.00  0.00    +0.000 HD
ENDBRANCH  14  22
BRANCH  17  24
ATOM     24  O5  UNK B   0     -12.894 -45.705 -26.473  0.00  0.00    +0.000 OA
ATOM     25  H35 UNK B   0     -13.833 -45.611 -26.712  0.00  0.00    +0.000 HD
ENDBRANCH  17  24
TORSDOF 4
ENDMDL
MODEL 8
REMARK VINA RESULT:    -6.614      2.782      5.604
REMARK INTER + INTRA:          -7.387
REMARK INTER:                  -7.387
REMARK INTRA:                   0.000
REMARK UNBOUND:                 0.000
REMARK  Name = data/C/Ligand/Brazilin.pdb
REMARK  4 active torsions:
REMARK  status: ('A' for Active; 'I' for Inactive)
REMARK    1  A    between atoms: O1_1  and  C6_6
REMARK    2  A    between atoms: O3_3  and  C17_17
REMARK    3  A    between atoms: O4_4  and  C18_18
REMARK    4  A    between atoms: O5_5  and  C21_21
REMARK                            x       y       z     vdW  Elec       q    Type
REMARK                         _______ _______ _______ _____ _____    ______ ____
ROOT
ATOM      1  O2  UNK B   0     -13.561 -44.849 -21.301  0.00  0.00    +0.000 OA
ATOM      2  C6  UNK B   0     -14.637 -46.888 -20.469  0.00  0.00    +0.000 C 
ATOM      3  C7  UNK B   0     -14.976 -47.356 -21.914  0.00  0.00    +0.000 C 
ATOM      4  C8  UNK B   0     -13.325 -47.593 -20.044  0.00  0.00    +0.000 C 
ATOM      5  C9  UNK B   0     -14.262 -48.688 -21.955  0.00  0.00    +0.000 A 
ATOM      6  C10 UNK B   0     -13.342 -48.813 -20.909  0.00  0.00    +0.000 A 
ATOM      7  C11 UNK B   0     -14.528 -45.370 -20.390  0.00  0.00    +0.000 C 
ATOM      8  C12 UNK B   0     -14.504 -46.370 -22.958  0.00  0.00    +0.000 A 
ATOM      9  C13 UNK B   0     -13.816 -45.201 -22.601  0.00  0.00    +0.000 A 
ATOM     10  C14 UNK B   0     -14.441 -49.725 -22.860  0.00  0.00    +0.000 A 
ATOM     11  C15 UNK B   0     -12.561 -49.951 -20.769  0.00  0.00    +0.000 A 
ATOM     12  C16 UNK B   0     -14.755 -46.603 -24.320  0.00  0.00    +0.000 A 
ATOM     13  C17 UNK B   0     -13.666 -50.879 -22.721  0.00  0.00    +0.000 A 
ATOM     14  C18 UNK B   0     -12.729 -50.989 -21.685  0.00  0.00    +0.000 A 
ATOM     15  C19 UNK B   0     -13.326 -44.330 -23.579  0.00  0.00    +0.000 A 
ATOM     16  C20 UNK B   0     -14.285 -45.722 -25.296  0.00  0.00    +0.000 A 
ATOM     17  C21 UNK B   0     -13.562 -44.591 -24.926  0.00  0.00    +0.000 A 
ENDROOT
BRANCH   2  18
ATOM     18  O1  UNK B   0     -15.690 -47.278 -19.580  0.00  0.00    +0.000 OA
ATOM     19  H28 UNK B   0     -16.166 -46.477 -19.303  0.00  0.00    +0.000 HD
ENDBRANCH   2  18
BRANCH  13  20
ATOM     20  O3  UNK B   0     -13.832 -51.901 -23.609  0.00  0.00    +0.000 OA
ATOM     21  H33 UNK B   0     -14.774 -52.139 -23.646  0.00  0.00    +0.000 HD
ENDBRANCH  13  20
BRANCH  14  22
ATOM     22  O4  UNK B   0     -11.974 -52.117 -21.557  0.00  0.00    +0.000 OA
ATOM     23  H34 UNK B   0     -11.034 -51.876 -21.615  0.00  0.00    +0.000 HD
ENDBRANCH  14  22
BRANCH  17  24
ATOM     24  O5  UNK B   0     -13.096 -43.738 -25.878  0.00  0.00    +0.000 OA
ATOM     25  H35 UNK B   0     -13.063 -44.206 -26.731  0.00  0.00    +0.000 HD
ENDBRANCH  17  24
TORSDOF 4
ENDMDL
MODEL 9
REMARK VINA RESULT:    -6.333      2.177      5.718
REMARK INTER + INTRA:          -7.073
REMARK INTER:                  -7.073
REMARK INTRA:                   0.000
REMARK UNBOUND:                 0.000
REMARK  Name = data/C/Ligand/Brazilin.pdb
REMARK  4 active torsions:
REMARK  status: ('A' for Active; 'I' for Inactive)
REMARK    1  A    between atoms: O1_1  and  C6_6
REMARK    2  A    between atoms: O3_3  and  C17_17
REMARK    3  A    between atoms: O4_4  and  C18_18
REMARK    4  A    between atoms: O5_5  and  C21_21
REMARK                            x       y       z     vdW  Elec       q    Type
REMARK                         _______ _______ _______ _____ _____    ______ ____
ROOT
ATOM      1  O2  UNK B   0     -14.926 -46.254 -20.005  0.00  0.00    +0.000 OA
ATOM      2  C6  UNK B   0     -15.727 -48.503 -19.453  0.00  0.00    +0.000 C 
ATOM      3  C7  UNK B   0     -15.249 -49.061 -20.824  0.00  0.00    +0.000 C 
ATOM      4  C8  UNK B   0     -14.622 -48.810 -18.412  0.00  0.00    +0.000 C 
ATOM      5  C9  UNK B   0     -14.293 -50.142 -20.373  0.00  0.00    +0.000 A 
ATOM      6  C10 UNK B   0     -13.947 -49.995 -19.026  0.00  0.00    +0.000 A 
ATOM      7  C11 UNK B   0     -16.040 -47.014 -19.540  0.00  0.00    +0.000 C 
ATOM      8  C12 UNK B   0     -14.613 -47.994 -21.685  0.00  0.00    +0.000 A 
ATOM      9  C13 UNK B   0     -14.469 -46.676 -21.227  0.00  0.00    +0.000 A 
ATOM     10  C14 UNK B   0     -13.783 -51.197 -21.117  0.00  0.00    +0.000 A 
ATOM     11  C15 UNK B   0     -13.063 -50.868 -18.410  0.00  0.00    +0.000 A 
ATOM     12  C16 UNK B   0     -14.154 -48.302 -22.976  0.00  0.00    +0.000 A 
ATOM     13  C17 UNK B   0     -12.900 -52.088 -20.503  0.00  0.00    +0.000 A 
ATOM     14  C18 UNK B   0     -12.539 -51.922 -19.159  0.00  0.00    +0.000 A 
ATOM     15  C19 UNK B   0     -13.819 -45.713 -22.005  0.00  0.00    +0.000 A 
ATOM     16  C20 UNK B   0     -13.524 -47.334 -23.762  0.00  0.00    +0.000 A 
ATOM     17  C21 UNK B   0     -13.348 -46.043 -23.273  0.00  0.00    +0.000 A 
ENDROOT
BRANCH   2  18
ATOM     18  O1  UNK B   0     -16.937 -49.162 -19.063  0.00  0.00    +0.000 OA
ATOM     19  H28 UNK B   0     -17.170 -48.865 -18.167  0.00  0.00    +0.000 HD
ENDBRANCH   2  18
BRANCH  13  20
ATOM     20  O3  UNK B   0     -12.390 -53.124 -21.227  0.00  0.00    +0.000 OA
ATOM     21  H33 UNK B   0     -12.281 -53.895 -20.645  0.00  0.00    +0.000 HD
ENDBRANCH  13  20
BRANCH  14  22
ATOM     22  O4  UNK B   0     -11.673 -52.792 -18.567  0.00  0.00    +0.000 OA
ATOM     23  H34 UNK B   0     -10.896 -52.905 -19.140  0.00  0.00    +0.000 HD
ENDBRANCH  14  22
BRANCH  17  24
ATOM     24  O5  UNK B   0     -12.725 -45.104 -24.035  0.00  0.00    +0.000 OA
ATOM     25  H35 UNK B   0     -12.584 -45.465 -24.928  0.00  0.00    +0.000 HD
ENDBRANCH  17  24
TORSDOF 4
ENDMDL
