MODEL 1
REMARK VINA RESULT:    -3.021      0.000      0.000
REMARK INTER + INTRA:          -3.947
REMARK INTER:                  -3.816
REMARK INTRA:                  -0.131
REMARK UNBOUND:                -0.131
REMARK  Name = data/C/Ligand/Tetracycline.pdb
REMARK  10 active torsions:
REMARK  status: ('A' for Active; 'I' for Inactive)
REMARK    1  A    between atoms: O1_1  and  C14_14
REMARK    2  A    between atoms: O2_2  and  C16_16
REMARK    3  A    between atoms: O4_4  and  C19_19
REMARK    4  A    between atoms: O5_5  and  C22_22
REMARK    5  A    between atoms: O7_7  and  C29_29
REMARK    6  A    between atoms: N9_9  and  C15_15
REMARK    7  A    between atoms: N9_9  and  C27_27
REMARK    8  A    between atoms: N9_9  and  C28_28
REMARK    9  A    between atoms: C16_16  and  C25_25
REMARK   10  A    between atoms: C23_23  and  C30_30
REMARK                            x       y       z     vdW  Elec       q    Type
REMARK                         _______ _______ _______ _____ _____    ______ ____
ROOT
ATOM      1  O3  UNK T   1     -12.123 -49.962 -22.508  0.00  0.00    +0.000 OA
ATOM      2  O6  UNK T   1     -14.252 -43.896 -23.662  0.00  0.00    +0.000 OA
ATOM      3  C11 UNK T   1     -13.982 -47.434 -24.316  0.00  0.00    +0.000 C 
ATOM      4  C12 UNK T   1     -15.457 -49.150 -23.137  0.00  0.00    +0.000 C 
ATOM      5  C13 UNK T   1     -15.366 -47.702 -23.651  0.00  0.00    +0.000 C 
ATOM      6  C14 UNK T   1     -12.774 -47.783 -23.405  0.00  0.00    +0.000 C 
ATOM      7  C15 UNK T   1     -13.920 -45.973 -24.794  0.00  0.00    +0.000 C 
ATOM      8  C16 UNK T   1     -16.845 -49.608 -22.600  0.00  0.00    +0.000 C 
ATOM      9  C17 UNK T   1     -14.365 -49.307 -22.124  0.00  0.00    +0.000 C 
ATOM     10  C18 UNK T   1     -12.998 -49.118 -22.674  0.00  0.00    +0.000 C 
ATOM     11  C19 UNK T   1     -12.457 -46.708 -22.381  0.00  0.00    +0.000 C 
ATOM     12  C20 UNK T   1     -17.028 -49.345 -21.106  0.00  0.00    +0.000 A 
ATOM     13  C21 UNK T   1     -13.762 -45.025 -23.622  0.00  0.00    +0.000 C 
ATOM     14  C22 UNK T   1     -14.545 -49.427 -20.801  0.00  0.00    +0.000 C 
ATOM     15  C23 UNK T   1     -12.948 -45.452 -22.436  0.00  0.00    +0.000 C 
ATOM     16  C24 UNK T   1     -15.910 -49.304 -20.242  0.00  0.00    +0.000 A 
ATOM     17  C25 UNK T   1     -17.020 -51.121 -22.834  0.00  0.00    +0.000 C 
ATOM     18  C26 UNK T   1     -18.324 -49.215 -20.568  0.00  0.00    +0.000 A 
ATOM     19  C29 UNK T   1     -16.128 -49.088 -18.869  0.00  0.00    +0.000 A 
ATOM     20  C31 UNK T   1     -18.516 -49.014 -19.204  0.00  0.00    +0.000 A 
ATOM     21  C32 UNK T   1     -17.419 -48.946 -18.355  0.00  0.00    +0.000 A 
ENDROOT
BRANCH  15  24
ATOM     22  O8  UNK T   1     -11.620 -43.863 -21.308  0.00  0.00    +0.000 OA
ATOM     23  N10 UNK T   1     -13.717 -44.353 -20.474  0.00  0.00    +0.000 N 
ATOM     24  C30 UNK T   1     -12.679 -44.478 -21.364  0.00  0.00    +0.000 C 
ATOM     25  H54 UNK T   1     -13.685 -43.728 -19.674  0.00  0.00    +0.000 HD
ATOM     26  H55 UNK T   1     -14.565 -44.898 -20.586  0.00  0.00    +0.000 HD
ENDBRANCH  15  24
BRANCH   7  27
ATOM     27  N9  UNK T   1     -12.799 -45.711 -25.692  0.00  0.00    +0.000 NA
ATOM     28  C27 UNK T   1     -12.760 -46.706 -26.763  0.00  0.00    +0.000 C 
ATOM     29  C28 UNK T   1     -12.897 -44.363 -26.248  0.00  0.00    +0.000 C 
ENDBRANCH   7  27
BRANCH  11  30
ATOM     30  O4  UNK T   1     -11.596 -47.150 -21.388  0.00  0.00    +0.000 OA
ATOM     31  H50 UNK T   1     -11.864 -48.033 -21.089  0.00  0.00    +0.000 HD
ENDBRANCH  11  30
BRANCH   6  32
ATOM     32  O1  UNK T   1     -11.600 -47.959 -24.198  0.00  0.00    +0.000 OA
ATOM     33  H41 UNK T   1     -10.850 -47.516 -23.765  0.00  0.00    +0.000 HD
ENDBRANCH   6  32
BRANCH  19  34
ATOM     34  O7  UNK T   1     -15.113 -49.031 -17.954  0.00  0.00    +0.000 OA
ATOM     35  H56 UNK T   1     -14.442 -48.391 -18.244  0.00  0.00    +0.000 HD
ENDBRANCH  19  34
BRANCH   8  36
ATOM     36  O2  UNK T   1     -17.866 -48.966 -23.372  0.00  0.00    +0.000 OA
ATOM     37  H42 UNK T   1     -18.568 -48.677 -22.764  0.00  0.00    +0.000 HD
ENDBRANCH   8  36
BRANCH  14  38
ATOM     38  O5  UNK T   1     -13.475 -49.549 -19.937  0.00  0.00    +0.000 OA
ATOM     39  H51 UNK T   1     -13.779 -49.876 -19.076  0.00  0.00    +0.000 HD
ENDBRANCH  14  38
TORSDOF 7
ENDMDL
MODEL 2
REMARK VINA RESULT:    -2.732      2.219      6.640
REMARK INTER + INTRA:          -3.581
REMARK INTER:                  -4.092
REMARK INTRA:                   0.510
REMARK UNBOUND:                -0.131
REMARK  Name = data/C/Ligand/Tetracycline.pdb
REMARK  10 active torsions:
REMARK  status: ('A' for Active; 'I' for Inactive)
REMARK    1  A    between atoms: O1_1  and  C14_14
REMARK    2  A    between atoms: O2_2  and  C16_16
REMARK    3  A    between atoms: O4_4  and  C19_19
REMARK    4  A    between atoms: O5_5  and  C22_22
REMARK    5  A    between atoms: O7_7  and  C29_29
REMARK    6  A    between atoms: N9_9  and  C15_15
REMARK    7  A    between atoms: N9_9  and  C27_27
REMARK    8  A    between atoms: N9_9  and  C28_28
REMARK    9  A    between atoms: C16_16  and  C25_25
REMARK   10  A    between atoms: C23_23  and  C30_30
REMARK                            x       y       z     vdW  Elec       q    Type
REMARK                         _______ _______ _______ _____ _____    ______ ____
ROOT
ATOM      1  O3  UNK T   1     -11.595 -49.467 -21.584  0.00  0.00    +0.000 OA
ATOM      2  O6  UNK T   1     -18.022 -48.774 -20.648  0.00  0.00    +0.000 OA
ATOM      3  C11 UNK T   1     -14.541 -48.112 -19.971  0.00  0.00    +0.000 C 
ATOM      4  C12 UNK T   1     -13.204 -46.386 -21.293  0.00  0.00    +0.000 C 
ATOM      5  C13 UNK T   1     -14.599 -46.775 -20.772  0.00  0.00    +0.000 C 
ATOM      6  C14 UNK T   1     -13.888 -49.281 -20.756  0.00  0.00    +0.000 C 
ATOM      7  C15 UNK T   1     -15.955 -48.479 -19.489  0.00  0.00    +0.000 C 
ATOM      8  C16 UNK T   1     -13.083 -44.987 -21.966  0.00  0.00    +0.000 C 
ATOM      9  C17 UNK T   1     -12.763 -47.500 -22.191  0.00  0.00    +0.000 C 
ATOM     10  C18 UNK T   1     -12.630 -48.812 -21.506  0.00  0.00    +0.000 C 
ATOM     11  C19 UNK T   1     -14.829 -49.948 -21.743  0.00  0.00    +0.000 C 
ATOM     12  C20 UNK T   1     -13.345 -45.020 -23.472  0.00  0.00    +0.000 A 
ATOM     13  C21 UNK T   1     -16.807 -48.976 -20.639  0.00  0.00    +0.000 C 
ATOM     14  C22 UNK T   1     -12.659 -47.427 -23.525  0.00  0.00    +0.000 C 
ATOM     15  C23 UNK T   1     -16.167 -49.774 -21.737  0.00  0.00    +0.000 C 
ATOM     16  C24 UNK T   1     -13.094 -46.194 -24.219  0.00  0.00    +0.000 A 
ATOM     17  C25 UNK T   1     -11.663 -44.428 -21.752  0.00  0.00    +0.000 C 
ATOM     18  C26 UNK T   1     -13.772 -43.854 -24.137  0.00  0.00    +0.000 A 
ATOM     19  C29 UNK T   1     -13.323 -46.170 -25.607  0.00  0.00    +0.000 A 
ATOM     20  C31 UNK T   1     -13.980 -43.850 -25.514  0.00  0.00    +0.000 A 
ATOM     21  C32 UNK T   1     -13.760 -45.008 -26.247  0.00  0.00    +0.000 A 
ENDROOT
BRANCH  15  24
ATOM     22  O8  UNK T   1     -16.606 -51.264 -23.512  0.00  0.00    +0.000 OA
ATOM     23  N10 UNK T   1     -18.283 -49.837 -22.819  0.00  0.00    +0.000 N 
ATOM     24  C30 UNK T   1     -17.021 -50.375 -22.777  0.00  0.00    +0.000 C 
ATOM     25  H54 UNK T   1     -18.989 -50.137 -23.484  0.00  0.00    +0.000 HD
ATOM     26  H55 UNK T   1     -18.555 -49.100 -22.176  0.00  0.00    +0.000 HD
ENDBRANCH  15  24
BRANCH   7  27
ATOM     27  N9  UNK T   1     -15.959 -49.538 -18.483  0.00  0.00    +0.000 NA
ATOM     28  C27 UNK T   1     -14.981 -49.250 -17.435  0.00  0.00    +0.000 C 
ATOM     29  C28 UNK T   1     -17.296 -49.688 -17.909  0.00  0.00    +0.000 C 
ENDBRANCH   7  27
BRANCH  11  30
ATOM     30  O4  UNK T   1     -14.169 -50.769 -22.644  0.00  0.00    +0.000 OA
ATOM     31  H50 UNK T   1     -13.943 -50.266 -23.443  0.00  0.00    +0.000 HD
ENDBRANCH  11  30
BRANCH   6  32
ATOM     32  O1  UNK T   1     -13.452 -50.294 -19.849  0.00  0.00    +0.000 OA
ATOM     33  H41 UNK T   1     -13.054 -49.876 -19.067  0.00  0.00    +0.000 HD
ENDBRANCH   6  32
BRANCH  19  34
ATOM     34  O7  UNK T   1     -13.111 -47.252 -26.415  0.00  0.00    +0.000 OA
ATOM     35  H56 UNK T   1     -12.183 -47.532 -26.355  0.00  0.00    +0.000 HD
ENDBRANCH  19  34
BRANCH   8  36
ATOM     36  O2  UNK T   1     -13.971 -44.082 -21.301  0.00  0.00    +0.000 OA
ATOM     37  H42 UNK T   1     -14.560 -44.603 -20.729  0.00  0.00    +0.000 HD
ENDBRANCH   8  36
BRANCH  14  38
ATOM     38  O5  UNK T   1     -12.260 -48.514 -24.277  0.00  0.00    +0.000 OA
ATOM     39  H51 UNK T   1     -11.293 -48.538 -24.340  0.00  0.00    +0.000 HD
ENDBRANCH  14  38
TORSDOF 7
ENDMDL
MODEL 3
REMARK VINA RESULT:    -2.698      1.352      1.557
REMARK INTER + INTRA:          -3.539
REMARK INTER:                  -3.637
REMARK INTRA:                   0.098
REMARK UNBOUND:                -0.131
REMARK  Name = data/C/Ligand/Tetracycline.pdb
REMARK  10 active torsions:
REMARK  status: ('A' for Active; 'I' for Inactive)
REMARK    1  A    between atoms: O1_1  and  C14_14
REMARK    2  A    between atoms: O2_2  and  C16_16
REMARK    3  A    between atoms: O4_4  and  C19_19
REMARK    4  A    between atoms: O5_5  and  C22_22
REMARK    5  A    between atoms: O7_7  and  C29_29
REMARK    6  A    between atoms: N9_9  and  C15_15
REMARK    7  A    between atoms: N9_9  and  C27_27
REMARK    8  A    between atoms: N9_9  and  C28_28
REMARK    9  A    between atoms: C16_16  and  C25_25
REMARK   10  A    between atoms: C23_23  and  C30_30
REMARK                            x       y       z     vdW  Elec       q    Type
REMARK                         _______ _______ _______ _____ _____    ______ ____
ROOT
ATOM      1  O3  UNK T   1     -13.493 -50.624 -21.657  0.00  0.00    +0.000 OA
ATOM      2  O6  UNK T   1     -14.649 -44.403 -23.280  0.00  0.00    +0.000 OA
ATOM      3  C11 UNK T   1     -14.656 -47.970 -23.829  0.00  0.00    +0.000 C 
ATOM      4  C12 UNK T   1     -16.521 -49.475 -22.953  0.00  0.00    +0.000 C 
ATOM      5  C13 UNK T   1     -16.167 -48.064 -23.454  0.00  0.00    +0.000 C 
ATOM      6  C14 UNK T   1     -13.701 -48.418 -22.690  0.00  0.00    +0.000 C 
ATOM      7  C15 UNK T   1     -14.336 -46.541 -24.300  0.00  0.00    +0.000 C 
ATOM      8  C16 UNK T   1     -18.031 -49.761 -22.702  0.00  0.00    +0.000 C 
ATOM      9  C17 UNK T   1     -15.678 -49.716 -21.740  0.00  0.00    +0.000 C 
ATOM     10  C18 UNK T   1     -14.216 -49.695 -22.005  0.00  0.00    +0.000 C 
ATOM     11  C19 UNK T   1     -13.475 -47.350 -21.635  0.00  0.00    +0.000 C 
ATOM     12  C20 UNK T   1     -18.477 -49.431 -21.279  0.00  0.00    +0.000 A 
ATOM     13  C21 UNK T   1     -14.308 -45.578 -23.131  0.00  0.00    +0.000 C 
ATOM     14  C22 UNK T   1     -16.129 -49.772 -20.479  0.00  0.00    +0.000 C 
ATOM     15  C23 UNK T   1     -13.800 -46.051 -21.801  0.00  0.00    +0.000 C 
ATOM     16  C24 UNK T   1     -17.556 -49.484 -20.207  0.00  0.00    +0.000 A 
ATOM     17  C25 UNK T   1     -18.326 -51.253 -22.951  0.00  0.00    +0.000 C 
ATOM     18  C26 UNK T   1     -19.830 -49.143 -21.013  0.00  0.00    +0.000 A 
ATOM     19  C29 UNK T   1     -18.016 -49.200 -18.909  0.00  0.00    +0.000 A 
ATOM     20  C31 UNK T   1     -20.266 -48.878 -19.718  0.00  0.00    +0.000 A 
ATOM     21  C32 UNK T   1     -19.359 -48.902 -18.667  0.00  0.00    +0.000 A 
ENDROOT
BRANCH  15  24
ATOM     22  O8  UNK T   1     -14.355 -45.113 -19.710  0.00  0.00    +0.000 OA
ATOM     23  N10 UNK T   1     -12.641 -44.166 -20.933  0.00  0.00    +0.000 N 
ATOM     24  C30 UNK T   1     -13.642 -45.077 -20.706  0.00  0.00    +0.000 C 
ATOM     25  H54 UNK T   1     -12.411 -43.425 -20.278  0.00  0.00    +0.000 HD
ATOM     26  H55 UNK T   1     -12.091 -44.200 -21.785  0.00  0.00    +0.000 HD
ENDBRANCH  15  24
BRANCH   7  27
ATOM     27  N9  UNK T   1     -13.036 -46.432 -24.957  0.00  0.00    +0.000 NA
ATOM     28  C27 UNK T   1     -13.206 -46.200 -26.390  0.00  0.00    +0.000 C 
ATOM     29  C28 UNK T   1     -12.250 -45.358 -24.354  0.00  0.00    +0.000 C 
ENDBRANCH   7  27
BRANCH  11  30
ATOM     30  O4  UNK T   1     -12.884 -47.850 -20.484  0.00  0.00    +0.000 OA
ATOM     31  H50 UNK T   1     -13.536 -47.878 -19.765  0.00  0.00    +0.000 HD
ENDBRANCH  11  30
BRANCH   6  32
ATOM     32  O1  UNK T   1     -12.421 -48.747 -23.228  0.00  0.00    +0.000 OA
ATOM     33  H41 UNK T   1     -11.746 -48.177 -22.824  0.00  0.00    +0.000 HD
ENDBRANCH   6  32
BRANCH  19  34
ATOM     34  O7  UNK T   1     -17.205 -49.223 -17.809  0.00  0.00    +0.000 OA
ATOM     35  H56 UNK T   1     -17.424 -48.481 -17.220  0.00  0.00    +0.000 HD
ENDBRANCH  19  34
BRANCH   8  36
ATOM     36  O2  UNK T   1     -18.799 -49.038 -23.671  0.00  0.00    +0.000 OA
ATOM     37  H42 UNK T   1     -18.872 -48.116 -23.371  0.00  0.00    +0.000 HD
ENDBRANCH   8  36
BRANCH  14  38
ATOM     38  O5  UNK T   1     -15.273 -49.981 -19.416  0.00  0.00    +0.000 OA
ATOM     39  H51 UNK T   1     -15.745 -49.849 -18.579  0.00  0.00    +0.000 HD
ENDBRANCH  14  38
TORSDOF 7
ENDMDL
MODEL 4
REMARK VINA RESULT:    -1.133      2.277      6.660
REMARK INTER + INTRA:          -1.562
REMARK INTER:                  -1.752
REMARK INTRA:                   0.190
REMARK UNBOUND:                -0.131
REMARK  Name = data/C/Ligand/Tetracycline.pdb
REMARK  10 active torsions:
REMARK  status: ('A' for Active; 'I' for Inactive)
REMARK    1  A    between atoms: O1_1  and  C14_14
REMARK    2  A    between atoms: O2_2  and  C16_16
REMARK    3  A    between atoms: O4_4  and  C19_19
REMARK    4  A    between atoms: O5_5  and  C22_22
REMARK    5  A    between atoms: O7_7  and  C29_29
REMARK    6  A    between atoms: N9_9  and  C15_15
REMARK    7  A    between atoms: N9_9  and  C27_27
REMARK    8  A    between atoms: N9_9  and  C28_28
REMARK    9  A    between atoms: C16_16  and  C25_25
REMARK   10  A    between atoms: C23_23  and  C30_30
REMARK                            x       y       z     vdW  Elec       q    Type
REMARK                         _______ _______ _______ _____ _____    ______ ____
ROOT
ATOM      1  O3  UNK T   1     -12.098 -49.662 -21.985  0.00  0.00    +0.000 OA
ATOM      2  O6  UNK T   1     -18.315 -48.398 -20.432  0.00  0.00    +0.000 OA
ATOM      3  C11 UNK T   1     -14.739 -48.173 -20.005  0.00  0.00    +0.000 C 
ATOM      4  C12 UNK T   1     -13.324 -46.474 -21.278  0.00  0.00    +0.000 C 
ATOM      5  C13 UNK T   1     -14.709 -46.765 -20.674  0.00  0.00    +0.000 C 
ATOM      6  C14 UNK T   1     -14.285 -49.321 -20.947  0.00  0.00    +0.000 C 
ATOM      7  C15 UNK T   1     -16.144 -48.437 -19.437  0.00  0.00    +0.000 C 
ATOM      8  C16 UNK T   1     -13.098 -45.036 -21.830  0.00  0.00    +0.000 C 
ATOM      9  C17 UNK T   1     -13.082 -47.534 -22.308  0.00  0.00    +0.000 C 
ATOM     10  C18 UNK T   1     -13.044 -48.914 -21.758  0.00  0.00    +0.000 C 
ATOM     11  C19 UNK T   1     -15.369 -49.785 -21.903  0.00  0.00    +0.000 C 
ATOM     12  C20 UNK T   1     -13.478 -44.891 -23.304  0.00  0.00    +0.000 A 
ATOM     13  C21 UNK T   1     -17.134 -48.726 -20.548  0.00  0.00    +0.000 C 
ATOM     14  C22 UNK T   1     -13.073 -47.339 -23.634  0.00  0.00    +0.000 C 
ATOM     15  C23 UNK T   1     -16.674 -49.473 -21.765  0.00  0.00    +0.000 C 
ATOM     16  C24 UNK T   1     -13.419 -46.005 -24.173  0.00  0.00    +0.000 A 
ATOM     17  C25 UNK T   1     -11.612 -44.652 -21.691  0.00  0.00    +0.000 C 
ATOM     18  C26 UNK T   1     -13.822 -43.627 -23.821  0.00  0.00    +0.000 A 
ATOM     19  C29 UNK T   1     -13.750 -45.819 -25.528  0.00  0.00    +0.000 A 
ATOM     20  C31 UNK T   1     -14.134 -43.465 -25.168  0.00  0.00    +0.000 A 
ATOM     21  C32 UNK T   1     -14.102 -44.561 -26.020  0.00  0.00    +0.000 A 
ENDROOT
BRANCH  15  24
ATOM     22  O8  UNK T   1     -18.457 -49.068 -23.255  0.00  0.00    +0.000 OA
ATOM     23  N10 UNK T   1     -17.603 -51.207 -23.100  0.00  0.00    +0.000 N 
ATOM     24  C30 UNK T   1     -17.668 -49.875 -22.776  0.00  0.00    +0.000 C 
ATOM     25  H54 UNK T   1     -18.225 -51.641 -23.775  0.00  0.00    +0.000 HD
ATOM     26  H55 UNK T   1     -16.920 -51.816 -22.660  0.00  0.00    +0.000 HD
ENDBRANCH  15  24
BRANCH   7  27
ATOM     27  N9  UNK T   1     -16.190 -49.584 -18.533  0.00  0.00    +0.000 NA
ATOM     28  C27 UNK T   1     -15.144 -49.475 -17.518  0.00  0.00    +0.000 C 
ATOM     29  C28 UNK T   1     -17.506 -49.684 -17.905  0.00  0.00    +0.000 C 
ENDBRANCH   7  27
BRANCH  11  30
ATOM     30  O4  UNK T   1     -14.876 -50.576 -22.930  0.00  0.00    +0.000 OA
ATOM     31  H50 UNK T   1     -14.160 -51.140 -22.596  0.00  0.00    +0.000 HD
ENDBRANCH  11  30
BRANCH   6  32
ATOM     32  O1  UNK T   1     -13.897 -50.459 -20.177  0.00  0.00    +0.000 OA
ATOM     33  H41 UNK T   1     -13.870 -51.242 -20.752  0.00  0.00    +0.000 HD
ENDBRANCH   6  32
BRANCH  19  34
ATOM     34  O7  UNK T   1     -13.724 -46.832 -26.446  0.00  0.00    +0.000 OA
ATOM     35  H56 UNK T   1     -13.691 -47.690 -25.991  0.00  0.00    +0.000 HD
ENDBRANCH  19  34
BRANCH   8  36
ATOM     36  O2  UNK T   1     -13.825 -44.114 -21.011  0.00  0.00    +0.000 OA
ATOM     37  H42 UNK T   1     -14.740 -44.434 -20.934  0.00  0.00    +0.000 HD
ENDBRANCH   8  36
BRANCH  14  38
ATOM     38  O5  UNK T   1     -12.858 -48.382 -24.513  0.00  0.00    +0.000 OA
ATOM     39  H51 UNK T   1     -13.687 -48.863 -24.667  0.00  0.00    +0.000 HD
ENDBRANCH  14  38
TORSDOF 7
ENDMDL
