MODEL 1
REMARK VINA RESULT:    -6.216      0.000      0.000
REMARK INTER + INTRA:          -9.442
REMARK INTER:                  -8.941
REMARK INTRA:                  -0.501
REMARK UNBOUND:                -0.501
REMARK  8 active torsions:
REMARK  status: ('A' for Active; 'I' for Inactive)
REMARK    1  A    between atoms: C70_1  and  C1_2 
REMARK    2  A    between atoms: C70_1  and  N12_19 
REMARK    3  A    between atoms: C1_2  and  C2_3 
REMARK    4  A    between atoms: C2_3  and  C3_4 
REMARK       I    between atoms: C3_4  and  N1_6 
REMARK    5  A    between atoms: N1_6  and  C4_7 
REMARK    6  A    between atoms: C4_7  and  C13_8 
REMARK    7  A    between atoms: C4_7  and  C5_10 
REMARK    8  A    between atoms: C13_8  and  C7_9 
ROOT
HETATM    1  C70 BES A 501      21.521   2.662  27.195  1.00  6.08     0.230 C 
ENDROOT
BRANCH   1   2
HETATM    2  C1  BES A 501      22.927   2.640  27.105  1.00  6.71     0.036 C 
BRANCH   2   3
HETATM    3  C2  BES A 501      23.618   1.355  27.439  1.00  9.09     0.098 C 
BRANCH   3   4
HETATM    4  C3  BES A 501      25.078   1.628  27.659  1.00  8.29     0.198 C 
HETATM    5  O3  BES A 501      25.371   2.458  28.490  1.00  7.85    -0.280 OA
HETATM    6  N1  BES A 501      26.072   0.884  26.872  1.00  8.97    -0.248 NA
HETATM    7  H7  BES A 501      25.836   1.084  25.847  1.00  8.27     0.131 HD
BRANCH   6   8
HETATM    8  C4  BES A 501      27.520   1.063  26.982  1.00 10.85     0.169 C 
BRANCH   8   9
HETATM    9  C13 BES A 501      28.167  -0.250  27.435  1.00  8.22     0.089 C 
BRANCH   9  10
HETATM   10  C7  BES A 501      29.558   0.014  28.043  1.00 11.21     0.029 A 
HETATM   11  C21 BES A 501      30.644  -1.044  28.310  1.00  0.00     0.143 A 
HETATM   12  N22 BES A 501      31.864  -0.330  28.921  1.00  0.00    -0.254 N 
HETATM   13  C23 BES A 501      31.531   1.170  29.032  1.00  0.00     0.207 A 
HETATM   14  N24 BES A 501      30.105   1.383  28.489  1.00  0.00    -0.353 N 
HETATM   15  H13 BES A 501      29.587   2.317  28.432  1.00  8.23     0.166 HD
ENDBRANCH   9  10
ENDBRANCH   8   9
BRANCH   8  16
HETATM   16  C5  BES A 501      28.035   1.402  25.622  1.00 10.09     0.192 C 
HETATM   17  O1  BES A 501      29.044   2.153  25.512  1.00  5.58    -0.647 OA
HETATM   18  O4  BES A 501      27.449   0.870  24.629  1.00  5.29    -0.647 OA
ENDBRANCH   8  16
ENDBRANCH   6   8
ENDBRANCH   3   4
ENDBRANCH   2   3
ENDBRANCH   1   2
BRANCH   1  19
HETATM   19  N12 BES A 501      20.935   1.646  26.225  1.00  8.22    -0.079 N 
HETATM   20  H14 BES A 501      20.124   1.132  26.695  1.00  8.22     0.274 HD
HETATM   21  H15 BES A 501      21.690   0.942  25.947  1.00  8.22     0.274 HD
HETATM   22  H6  BES A 501      20.580   2.151  25.352  1.00  8.22     0.274 HD
ENDBRANCH   1  19
TORSDOF 8
ENDMDL
MODEL 2
REMARK VINA RESULT:    -6.187      1.559      6.853
REMARK INTER + INTRA:          -9.400
REMARK INTER:                  -8.706
REMARK INTRA:                  -0.694
REMARK UNBOUND:                -0.501
REMARK  8 active torsions:
REMARK  status: ('A' for Active; 'I' for Inactive)
REMARK    1  A    between atoms: C70_1  and  C1_2 
REMARK    2  A    between atoms: C70_1  and  N12_19 
REMARK    3  A    between atoms: C1_2  and  C2_3 
REMARK    4  A    between atoms: C2_3  and  C3_4 
REMARK       I    between atoms: C3_4  and  N1_6 
REMARK    5  A    between atoms: N1_6  and  C4_7 
REMARK    6  A    between atoms: C4_7  and  C13_8 
REMARK    7  A    between atoms: C4_7  and  C5_10 
REMARK    8  A    between atoms: C13_8  and  C7_9 
ROOT
HETATM    1  C70 BES A 501      30.724  -0.143  28.154  1.00  6.08     0.230 C 
ENDROOT
BRANCH   1   2
HETATM    2  C1  BES A 501      29.843  -0.892  27.348  1.00  6.71     0.036 C 
BRANCH   2   3
HETATM    3  C2  BES A 501      29.219  -0.194  26.180  1.00  9.09     0.098 C 
BRANCH   3   4
HETATM    4  C3  BES A 501      28.163   0.749  26.681  1.00  8.29     0.198 C 
HETATM    5  O3  BES A 501      28.259   1.913  26.361  1.00  7.85    -0.280 OA
HETATM    6  N1  BES A 501      27.075   0.226  27.519  1.00  8.97    -0.248 NA
HETATM    7  H7  BES A 501      27.554  -0.231  28.360  1.00  8.27     0.131 HD
BRANCH   6   8
HETATM    8  C4  BES A 501      25.994   1.039  28.078  1.00 10.85     0.169 C 
BRANCH   8   9
HETATM    9  C13 BES A 501      24.692   0.233  28.075  1.00  8.22     0.089 C 
BRANCH   9  10
HETATM   10  C7  BES A 501      23.514   1.111  27.613  1.00 11.21     0.029 A 
HETATM   11  C21 BES A 501      23.557   2.633  27.378  1.00  0.00     0.143 A 
HETATM   12  N22 BES A 501      22.157   3.084  26.924  1.00  0.00    -0.254 N 
HETATM   13  C23 BES A 501      21.247   1.841  26.880  1.00  0.00     0.207 A 
HETATM   14  N24 BES A 501      22.086   0.622  27.305  1.00  0.00    -0.353 N 
HETATM   15  H13 BES A 501      21.739  -0.388  27.375  1.00  8.23     0.166 HD
ENDBRANCH   9  10
ENDBRANCH   8   9
BRANCH   8  16
HETATM   16  C5  BES A 501      26.355   1.354  29.493  1.00 10.09     0.192 C 
HETATM   17  O1  BES A 501      27.569   1.338  29.839  1.00  5.58    -0.647 OA
HETATM   18  O4  BES A 501      25.410   1.671  30.278  1.00  5.29    -0.647 OA
ENDBRANCH   8  16
ENDBRANCH   6   8
ENDBRANCH   3   4
ENDBRANCH   2   3
ENDBRANCH   1   2
BRANCH   1  19
HETATM   19  N12 BES A 501      30.234  -0.160  29.594  1.00  8.22    -0.079 N 
HETATM   20  H14 BES A 501      29.613  -1.017  29.749  1.00  8.22     0.274 HD
HETATM   21  H15 BES A 501      29.672   0.728  29.790  1.00  8.22     0.274 HD
HETATM   22  H6  BES A 501      31.074  -0.205  30.256  1.00  8.22     0.274 HD
ENDBRANCH   1  19
TORSDOF 8
ENDMDL
MODEL 3
REMARK VINA RESULT:    -6.110      2.431      3.098
REMARK INTER + INTRA:          -9.291
REMARK INTER:                  -8.734
REMARK INTRA:                  -0.556
REMARK UNBOUND:                -0.501
REMARK  8 active torsions:
REMARK  status: ('A' for Active; 'I' for Inactive)
REMARK    1  A    between atoms: C70_1  and  C1_2 
REMARK    2  A    between atoms: C70_1  and  N12_19 
REMARK    3  A    between atoms: C1_2  and  C2_3 
REMARK    4  A    between atoms: C2_3  and  C3_4 
REMARK       I    between atoms: C3_4  and  N1_6 
REMARK    5  A    between atoms: N1_6  and  C4_7 
REMARK    6  A    between atoms: C4_7  and  C13_8 
REMARK    7  A    between atoms: C4_7  and  C5_10 
REMARK    8  A    between atoms: C13_8  and  C7_9 
ROOT
HETATM    1  C70 BES A 501      20.315   2.841  27.063  1.00  6.08     0.230 C 
ENDROOT
BRANCH   1   2
HETATM    2  C1  BES A 501      21.449   2.754  27.895  1.00  6.71     0.036 C 
BRANCH   2   3
HETATM    3  C2  BES A 501      22.771   3.116  27.295  1.00  9.09     0.098 C 
BRANCH   3   4
HETATM    4  C3  BES A 501      23.665   1.910  27.320  1.00  8.29     0.198 C 
HETATM    5  O3  BES A 501      23.144   0.827  27.172  1.00  7.85    -0.280 OA
HETATM    6  N1  BES A 501      25.111   2.093  27.514  1.00  8.97    -0.248 NA
HETATM    7  H7  BES A 501      25.212   2.615  28.443  1.00  8.27     0.131 HD
BRANCH   6   8
HETATM    8  C4  BES A 501      26.086   1.004  27.567  1.00 10.85     0.169 C 
BRANCH   8   9
HETATM    9  C13 BES A 501      27.504   1.582  27.557  1.00  8.22     0.089 C 
BRANCH   9  10
HETATM   10  C7  BES A 501      28.458   0.660  26.773  1.00 11.21     0.029 A 
HETATM   11  C21 BES A 501      29.693  -0.060  27.345  1.00  0.00     0.143 A 
HETATM   12  N22 BES A 501      30.342  -0.868  26.206  1.00  0.00    -0.254 N 
HETATM   13  C23 BES A 501      29.509  -0.646  24.930  1.00  0.00     0.207 A 
HETATM   14  N24 BES A 501      28.343   0.299  25.281  1.00  0.00    -0.353 N 
HETATM   15  H13 BES A 501      27.588   0.643  24.606  1.00  8.23     0.166 HD
ENDBRANCH   9  10
ENDBRANCH   8   9
BRANCH   8  16
HETATM   16  C5  BES A 501      25.878   0.279  28.857  1.00 10.09     0.192 C 
HETATM   17  O1  BES A 501      25.571  -0.945  28.836  1.00  5.58    -0.647 OA
HETATM   18  O4  BES A 501      26.068   0.932  29.929  1.00  5.29    -0.647 OA
ENDBRANCH   8  16
ENDBRANCH   6   8
ENDBRANCH   3   4
ENDBRANCH   2   3
ENDBRANCH   1   2
BRANCH   1  19
HETATM   19  N12 BES A 501      20.560   2.050  25.787  1.00  8.22    -0.079 N 
HETATM   20  H14 BES A 501      20.467   2.698  24.942  1.00  8.22     0.274 HD
HETATM   21  H15 BES A 501      19.840   1.262  25.712  1.00  8.22     0.274 HD
HETATM   22  H6  BES A 501      21.545   1.632  25.810  1.00  8.22     0.274 HD
ENDBRANCH   1  19
TORSDOF 8
ENDMDL
MODEL 4
REMARK VINA RESULT:    -6.025      2.456      3.101
REMARK INTER + INTRA:          -9.168
REMARK INTER:                  -8.368
REMARK INTRA:                  -0.800
REMARK UNBOUND:                -0.501
REMARK  8 active torsions:
REMARK  status: ('A' for Active; 'I' for Inactive)
REMARK    1  A    between atoms: C70_1  and  C1_2 
REMARK    2  A    between atoms: C70_1  and  N12_19 
REMARK    3  A    between atoms: C1_2  and  C2_3 
REMARK    4  A    between atoms: C2_3  and  C3_4 
REMARK       I    between atoms: C3_4  and  N1_6 
REMARK    5  A    between atoms: N1_6  and  C4_7 
REMARK    6  A    between atoms: C4_7  and  C13_8 
REMARK    7  A    between atoms: C4_7  and  C5_10 
REMARK    8  A    between atoms: C13_8  and  C7_9 
ROOT
HETATM    1  C70 BES A 501      23.641   1.978  28.957  1.00  6.08     0.230 C 
ENDROOT
BRANCH   1   2
HETATM    2  C1  BES A 501      24.787   2.052  28.140  1.00  6.71     0.036 C 
BRANCH   2   3
HETATM    3  C2  BES A 501      25.575   0.795  27.946  1.00  9.09     0.098 C 
BRANCH   3   4
HETATM    4  C3  BES A 501      26.947   0.984  28.527  1.00  8.29     0.198 C 
HETATM    5  O3  BES A 501      27.019   1.353  29.678  1.00  7.85    -0.280 OA
HETATM    6  N1  BES A 501      28.124   0.713  27.688  1.00  8.97    -0.248 NA
HETATM    7  H7  BES A 501      28.021   1.350  26.834  1.00  8.27     0.131 HD
BRANCH   6   8
HETATM    8  C4  BES A 501      29.510   0.868  28.129  1.00 10.85     0.169 C 
BRANCH   8   9
HETATM    9  C13 BES A 501      30.398  -0.143  27.396  1.00  8.22     0.089 C 
BRANCH   9  10
HETATM   10  C7  BES A 501      30.571  -1.421  28.239  1.00 11.21     0.029 A 
HETATM   11  C21 BES A 501      31.903  -2.135  28.536  1.00  0.00     0.143 A 
HETATM   12  N22 BES A 501      31.597  -3.364  29.413  1.00  0.00    -0.254 N 
HETATM   13  C23 BES A 501      30.077  -3.409  29.658  1.00  0.00     0.207 A 
HETATM   14  N24 BES A 501      29.443  -2.207  28.932  1.00  0.00    -0.353 N 
HETATM   15  H13 BES A 501      28.402  -1.962  28.913  1.00  8.23     0.166 HD
ENDBRANCH   9  10
ENDBRANCH   8   9
BRANCH   8  16
HETATM   16  C5  BES A 501      29.949   2.245  27.753  1.00 10.09     0.192 C 
HETATM   17  O1  BES A 501      29.438   2.803  26.743  1.00  5.58    -0.647 OA
HETATM   18  O4  BES A 501      30.796   2.813  28.510  1.00  5.29    -0.647 OA
ENDBRANCH   8  16
ENDBRANCH   6   8
ENDBRANCH   3   4
ENDBRANCH   2   3
ENDBRANCH   1   2
BRANCH   1  19
HETATM   19  N12 BES A 501      24.040   2.179  30.411  1.00  8.22    -0.079 N 
HETATM   20  H14 BES A 501      24.135   1.227  30.890  1.00  8.22     0.274 HD
HETATM   21  H15 BES A 501      23.291   2.756  30.910  1.00  8.22     0.274 HD
HETATM   22  H6  BES A 501      24.977   2.695  30.456  1.00  8.22     0.274 HD
ENDBRANCH   1  19
TORSDOF 8
ENDMDL
MODEL 5
REMARK VINA RESULT:    -6.012      2.157      6.482
REMARK INTER + INTRA:          -9.150
REMARK INTER:                  -8.565
REMARK INTRA:                  -0.585
REMARK UNBOUND:                -0.501
REMARK  8 active torsions:
REMARK  status: ('A' for Active; 'I' for Inactive)
REMARK    1  A    between atoms: C70_1  and  C1_2 
REMARK    2  A    between atoms: C70_1  and  N12_19 
REMARK    3  A    between atoms: C1_2  and  C2_3 
REMARK    4  A    between atoms: C2_3  and  C3_4 
REMARK       I    between atoms: C3_4  and  N1_6 
REMARK    5  A    between atoms: N1_6  and  C4_7 
REMARK    6  A    between atoms: C4_7  and  C13_8 
REMARK    7  A    between atoms: C4_7  and  C5_10 
REMARK    8  A    between atoms: C13_8  and  C7_9 
ROOT
HETATM    1  C70 BES A 501      31.666  -2.242  28.728  1.00  6.08     0.230 C 
ENDROOT
BRANCH   1   2
HETATM    2  C1  BES A 501      31.839  -1.063  27.977  1.00  6.71     0.036 C 
BRANCH   2   3
HETATM    3  C2  BES A 501      31.705  -1.169  26.490  1.00  9.09     0.098 C 
BRANCH   3   4
HETATM    4  C3  BES A 501      30.302  -0.803  26.098  1.00  8.29     0.198 C 
HETATM    5  O3  BES A 501      29.877  -1.259  25.060  1.00  7.85    -0.280 OA
HETATM    6  N1  BES A 501      29.518   0.073  26.979  1.00  8.97    -0.248 NA
HETATM    7  H7  BES A 501      30.092   0.971  27.077  1.00  8.27     0.131 HD
BRANCH   6   8
HETATM    8  C4  BES A 501      28.148   0.511  26.708  1.00 10.85     0.169 C 
BRANCH   8   9
HETATM    9  C13 BES A 501      27.661   1.410  27.849  1.00  8.22     0.089 C 
BRANCH   9  10
HETATM   10  C7  BES A 501      26.140   1.264  28.041  1.00 11.21     0.029 A 
HETATM   11  C21 BES A 501      25.324   1.788  29.237  1.00  0.00     0.143 A 
HETATM   12  N22 BES A 501      23.848   1.416  29.005  1.00  0.00    -0.254 N 
HETATM   13  C23 BES A 501      23.751   0.662  27.666  1.00  0.00     0.207 A 
HETATM   14  N24 BES A 501      25.168   0.568  27.069  1.00  0.00    -0.353 N 
HETATM   15  H13 BES A 501      25.431   0.102  26.143  1.00  8.23     0.166 HD
ENDBRANCH   9  10
ENDBRANCH   8   9
BRANCH   8  16
HETATM   16  C5  BES A 501      28.175   1.314  25.449  1.00 10.09     0.192 C 
HETATM   17  O1  BES A 501      29.047   2.216  25.309  1.00  5.58    -0.647 OA
HETATM   18  O4  BES A 501      27.333   1.012  24.548  1.00  5.29    -0.647 OA
ENDBRANCH   8  16
ENDBRANCH   6   8
ENDBRANCH   3   4
ENDBRANCH   2   3
ENDBRANCH   1   2
BRANCH   1  19
HETATM   19  N12 BES A 501      30.305  -2.217  29.406  1.00  8.22    -0.079 N 
HETATM   20  H14 BES A 501      30.060  -1.212  29.676  1.00  8.22     0.274 HD
HETATM   21  H15 BES A 501      30.333  -2.826  30.285  1.00  8.22     0.274 HD
HETATM   22  H6  BES A 501      29.564  -2.597  28.734  1.00  8.22     0.274 HD
ENDBRANCH   1  19
TORSDOF 8
ENDMDL
MODEL 6
REMARK VINA RESULT:    -5.905      2.280      6.397
REMARK INTER + INTRA:          -8.996
REMARK INTER:                  -8.112
REMARK INTRA:                  -0.884
REMARK UNBOUND:                -0.501
REMARK  8 active torsions:
REMARK  status: ('A' for Active; 'I' for Inactive)
REMARK    1  A    between atoms: C70_1  and  C1_2 
REMARK    2  A    between atoms: C70_1  and  N12_19 
REMARK    3  A    between atoms: C1_2  and  C2_3 
REMARK    4  A    between atoms: C2_3  and  C3_4 
REMARK       I    between atoms: C3_4  and  N1_6 
REMARK    5  A    between atoms: N1_6  and  C4_7 
REMARK    6  A    between atoms: C4_7  and  C13_8 
REMARK    7  A    between atoms: C4_7  and  C5_10 
REMARK    8  A    between atoms: C13_8  and  C7_9 
ROOT
HETATM    1  C70 BES A 501      31.260  -0.830  25.704  1.00  6.08     0.230 C 
ENDROOT
BRANCH   1   2
HETATM    2  C1  BES A 501      30.080  -1.024  24.958  1.00  6.71     0.036 C 
BRANCH   2   3
HETATM    3  C2  BES A 501      29.462   0.182  24.321  1.00  9.09     0.098 C 
BRANCH   3   4
HETATM    4  C3  BES A 501      28.786   1.002  25.382  1.00  8.29     0.198 C 
HETATM    5  O3  BES A 501      28.853   2.206  25.283  1.00  7.85    -0.280 OA
HETATM    6  N1  BES A 501      28.077   0.318  26.473  1.00  8.97    -0.248 NA
HETATM    7  H7  BES A 501      28.807  -0.312  26.939  1.00  8.27     0.131 HD
BRANCH   6   8
HETATM    8  C4  BES A 501      27.389   0.998  27.570  1.00 10.85     0.169 C 
BRANCH   8   9
HETATM    9  C13 BES A 501      26.161   0.183  27.989  1.00  8.22     0.089 C 
BRANCH   9  10
HETATM   10  C7  BES A 501      25.006   1.118  28.399  1.00 11.21     0.029 A 
HETATM   11  C21 BES A 501      23.957   1.728  27.451  1.00  0.00     0.143 A 
HETATM   12  N22 BES A 501      23.001   2.593  28.294  1.00  0.00    -0.254 N 
HETATM   13  C23 BES A 501      23.461   2.518  29.762  1.00  0.00     0.207 A 
HETATM   14  N24 BES A 501      24.701   1.606  29.827  1.00  0.00    -0.353 N 
HETATM   15  H13 BES A 501      25.252   1.355  30.709  1.00  8.23     0.166 HD
ENDBRANCH   9  10
ENDBRANCH   8   9
BRANCH   8  16
HETATM   16  C5  BES A 501      28.335   1.059  28.725  1.00 10.09     0.192 C 
HETATM   17  O1  BES A 501      29.561   0.831  28.532  1.00  5.58    -0.647 OA
HETATM   18  O4  BES A 501      27.856   1.388  29.853  1.00  5.29    -0.647 OA
ENDBRANCH   8  16
ENDBRANCH   6   8
ENDBRANCH   3   4
ENDBRANCH   2   3
ENDBRANCH   1   2
BRANCH   1  19
HETATM   19  N12 BES A 501      31.020  -1.239  27.149  1.00  8.22    -0.079 N 
HETATM   20  H14 BES A 501      31.206  -0.403  27.791  1.00  8.22     0.274 HD
HETATM   21  H15 BES A 501      31.679  -2.040  27.407  1.00  8.22     0.274 HD
HETATM   22  H6  BES A 501      30.006  -1.559  27.266  1.00  8.22     0.274 HD
ENDBRANCH   1  19
TORSDOF 8
ENDMDL
MODEL 7
REMARK VINA RESULT:    -5.886      2.294      2.828
REMARK INTER + INTRA:          -8.969
REMARK INTER:                  -8.072
REMARK INTRA:                  -0.896
REMARK UNBOUND:                -0.501
REMARK  8 active torsions:
REMARK  status: ('A' for Active; 'I' for Inactive)
REMARK    1  A    between atoms: C70_1  and  C1_2 
REMARK    2  A    between atoms: C70_1  and  N12_19 
REMARK    3  A    between atoms: C1_2  and  C2_3 
REMARK    4  A    between atoms: C2_3  and  C3_4 
REMARK       I    between atoms: C3_4  and  N1_6 
REMARK    5  A    between atoms: N1_6  and  C4_7 
REMARK    6  A    between atoms: C4_7  and  C13_8 
REMARK    7  A    between atoms: C4_7  and  C5_10 
REMARK    8  A    between atoms: C13_8  and  C7_9 
ROOT
HETATM    1  C70 BES A 501      22.788   2.405  28.177  1.00  6.08     0.230 C 
ENDROOT
BRANCH   1   2
HETATM    2  C1  BES A 501      24.087   2.419  27.631  1.00  6.71     0.036 C 
BRANCH   2   3
HETATM    3  C2  BES A 501      24.826   1.119  27.582  1.00  9.09     0.098 C 
BRANCH   3   4
HETATM    4  C3  BES A 501      26.090   1.245  28.383  1.00  8.29     0.198 C 
HETATM    5  O3  BES A 501      25.986   1.602  29.535  1.00  7.85    -0.280 OA
HETATM    6  N1  BES A 501      27.376   0.928  27.747  1.00  8.97    -0.248 NA
HETATM    7  H7  BES A 501      27.443   1.575  26.896  1.00  8.27     0.131 HD
BRANCH   6   8
HETATM    8  C4  BES A 501      28.676   1.020  28.412  1.00 10.85     0.169 C 
BRANCH   8   9
HETATM    9  C13 BES A 501      29.456  -0.280  28.197  1.00  8.22     0.089 C 
BRANCH   9  10
HETATM   10  C7  BES A 501      29.859  -0.430  26.717  1.00 11.21     0.029 A 
HETATM   11  C21 BES A 501      31.259  -0.803  26.194  1.00  0.00     0.143 A 
HETATM   12  N22 BES A 501      31.197  -0.837  24.655  1.00  0.00    -0.254 N 
HETATM   13  C23 BES A 501      29.760  -0.484  24.228  1.00  0.00     0.207 A 
HETATM   14  N24 BES A 501      28.933  -0.233  25.503  1.00  0.00    -0.353 N 
HETATM   15  H13 BES A 501      27.897   0.032  25.539  1.00  8.23     0.166 HD
ENDBRANCH   9  10
ENDBRANCH   8   9
BRANCH   8  16
HETATM   16  C5  BES A 501      29.430   2.138  27.771  1.00 10.09     0.192 C 
HETATM   17  O1  BES A 501      28.927   2.734  26.778  1.00  5.58    -0.647 OA
HETATM   18  O4  BES A 501      30.538   2.470  28.295  1.00  5.29    -0.647 OA
ENDBRANCH   8  16
ENDBRANCH   6   8
ENDBRANCH   3   4
ENDBRANCH   2   3
ENDBRANCH   1   2
BRANCH   1  19
HETATM   19  N12 BES A 501      22.869   2.138  29.672  1.00  8.22    -0.079 N 
HETATM   20  H14 BES A 501      22.325   1.247  29.905  1.00  8.22     0.274 HD
HETATM   21  H15 BES A 501      22.447   2.962  30.206  1.00  8.22     0.274 HD
HETATM   22  H6  BES A 501      23.893   2.014  29.958  1.00  8.22     0.274 HD
ENDBRANCH   1  19
TORSDOF 8
ENDMDL
MODEL 8
REMARK VINA RESULT:    -5.813      1.606      2.094
REMARK INTER + INTRA:          -8.863
REMARK INTER:                  -8.293
REMARK INTRA:                  -0.570
REMARK UNBOUND:                -0.501
REMARK  8 active torsions:
REMARK  status: ('A' for Active; 'I' for Inactive)
REMARK    1  A    between atoms: C70_1  and  C1_2 
REMARK    2  A    between atoms: C70_1  and  N12_19 
REMARK    3  A    between atoms: C1_2  and  C2_3 
REMARK    4  A    between atoms: C2_3  and  C3_4 
REMARK       I    between atoms: C3_4  and  N1_6 
REMARK    5  A    between atoms: N1_6  and  C4_7 
REMARK    6  A    between atoms: C4_7  and  C13_8 
REMARK    7  A    between atoms: C4_7  and  C5_10 
REMARK    8  A    between atoms: C13_8  and  C7_9 
ROOT
HETATM    1  C70 BES A 501      23.594   0.963  27.341  1.00  6.08     0.230 C 
ENDROOT
BRANCH   1   2
HETATM    2  C1  BES A 501      24.192   0.501  28.530  1.00  6.71     0.036 C 
BRANCH   2   3
HETATM    3  C2  BES A 501      25.584  -0.043  28.433  1.00  9.09     0.098 C 
BRANCH   3   4
HETATM    4  C3  BES A 501      26.500   1.044  27.948  1.00  8.29     0.198 C 
HETATM    5  O3  BES A 501      26.327   2.157  28.390  1.00  7.85    -0.280 OA
HETATM    6  N1  BES A 501      27.552   0.713  26.977  1.00  8.97    -0.248 NA
HETATM    7  H7  BES A 501      27.044   0.290  26.135  1.00  8.27     0.131 HD
BRANCH   6   8
HETATM    8  C4  BES A 501      28.500   1.678  26.419  1.00 10.85     0.169 C 
BRANCH   8   9
HETATM    9  C13 BES A 501      29.757   1.727  27.293  1.00  8.22     0.089 C 
BRANCH   9  10
HETATM   10  C7  BES A 501      30.184   0.306  27.707  1.00 11.21     0.029 A 
HETATM   11  C21 BES A 501      31.332  -0.511  27.086  1.00  0.00     0.143 A 
HETATM   12  N22 BES A 501      31.395  -1.868  27.810  1.00  0.00    -0.254 N 
HETATM   13  C23 BES A 501      30.286  -1.891  28.878  1.00  0.00     0.207 A 
HETATM   14  N24 BES A 501      29.537  -0.546  28.814  1.00  0.00    -0.353 N 
HETATM   15  H13 BES A 501      28.713  -0.256  29.431  1.00  8.23     0.166 HD
ENDBRANCH   9  10
ENDBRANCH   8   9
BRANCH   8  16
HETATM   16  C5  BES A 501      28.886   1.193  25.060  1.00 10.09     0.192 C 
HETATM   17  O1  BES A 501      28.093   0.446  24.421  1.00  5.58    -0.647 OA
HETATM   18  O4  BES A 501      29.992   1.600  24.588  1.00  5.29    -0.647 OA
ENDBRANCH   8  16
ENDBRANCH   6   8
ENDBRANCH   3   4
ENDBRANCH   2   3
ENDBRANCH   1   2
BRANCH   1  19
HETATM   19  N12 BES A 501      22.112   0.618  27.352  1.00  8.22    -0.079 N 
HETATM   20  H14 BES A 501      21.775   0.524  28.362  1.00  8.22     0.274 HD
HETATM   21  H15 BES A 501      21.958  -0.306  26.837  1.00  8.22     0.274 HD
HETATM   22  H6  BES A 501      21.562   1.395  26.864  1.00  8.22     0.274 HD
ENDBRANCH   1  19
TORSDOF 8
ENDMDL
MODEL 9
REMARK VINA RESULT:    -5.812      2.973      6.625
REMARK INTER + INTRA:          -8.862
REMARK INTER:                  -8.098
REMARK INTRA:                  -0.764
REMARK UNBOUND:                -0.501
REMARK  8 active torsions:
REMARK  status: ('A' for Active; 'I' for Inactive)
REMARK    1  A    between atoms: C70_1  and  C1_2 
REMARK    2  A    between atoms: C70_1  and  N12_19 
REMARK    3  A    between atoms: C1_2  and  C2_3 
REMARK    4  A    between atoms: C2_3  and  C3_4 
REMARK       I    between atoms: C3_4  and  N1_6 
REMARK    5  A    between atoms: N1_6  and  C4_7 
REMARK    6  A    between atoms: C4_7  and  C13_8 
REMARK    7  A    between atoms: C4_7  and  C5_10 
REMARK    8  A    between atoms: C13_8  and  C7_9 
ROOT
HETATM    1  C70 BES A 501      31.550  -3.928  30.019  1.00  6.08     0.230 C 
ENDROOT
BRANCH   1   2
HETATM    2  C1  BES A 501      31.919  -3.339  28.793  1.00  6.71     0.036 C 
BRANCH   2   3
HETATM    3  C2  BES A 501      31.843  -1.847  28.696  1.00  9.09     0.098 C 
BRANCH   3   4
HETATM    4  C3  BES A 501      30.629  -1.472  27.896  1.00  8.29     0.198 C 
HETATM    5  O3  BES A 501      29.546  -1.681  28.395  1.00  7.85    -0.280 OA
HETATM    6  N1  BES A 501      30.806  -0.872  26.566  1.00  8.97    -0.248 NA
HETATM    7  H7  BES A 501      31.381  -1.579  26.005  1.00  8.27     0.131 HD
BRANCH   6   8
HETATM    8  C4  BES A 501      29.709  -0.472  25.684  1.00 10.85     0.169 C 
BRANCH   8   9
HETATM    9  C13 BES A 501      29.336   0.988  25.957  1.00  8.22     0.089 C 
BRANCH   9  10
HETATM   10  C7  BES A 501      27.996   1.072  26.711  1.00 11.21     0.029 A 
HETATM   11  C21 BES A 501      27.821   1.328  28.220  1.00  0.00     0.143 A 
HETATM   12  N22 BES A 501      26.313   1.329  28.530  1.00  0.00    -0.254 N 
HETATM   13  C23 BES A 501      25.555   1.074  27.214  1.00  0.00     0.207 A 
HETATM   14  N24 BES A 501      26.596   0.916  26.089  1.00  0.00    -0.353 N 
HETATM   15  H13 BES A 501      26.384   0.730  25.057  1.00  8.23     0.166 HD
ENDBRANCH   9  10
ENDBRANCH   8   9
BRANCH   8  16
HETATM   16  C5  BES A 501      30.201  -0.582  24.278  1.00 10.09     0.192 C 
HETATM   17  O1  BES A 501      30.062   0.399  23.495  1.00  5.58    -0.647 OA
HETATM   18  O4  BES A 501      30.787  -1.659  23.948  1.00  5.29    -0.647 OA
ENDBRANCH   8  16
ENDBRANCH   6   8
ENDBRANCH   3   4
ENDBRANCH   2   3
ENDBRANCH   1   2
BRANCH   1  19
HETATM   19  N12 BES A 501      30.096  -4.371  29.951  1.00  8.22    -0.079 N 
HETATM   20  H14 BES A 501      29.515  -3.795  30.639  1.00  8.22     0.274 HD
HETATM   21  H15 BES A 501      30.027  -5.407  30.206  1.00  8.22     0.274 HD
HETATM   22  H6  BES A 501      29.724  -4.223  28.959  1.00  8.22     0.274 HD
ENDBRANCH   1  19
TORSDOF 8
ENDMDL
