MODEL 1
REMARK VINA RESULT:    -6.354      0.000      0.000
REMARK INTER + INTRA:          -9.418
REMARK INTER:                  -8.768
REMARK INTRA:                  -0.649
REMARK UNBOUND:                -0.649
REMARK  7 active torsions:
REMARK  status: ('A' for Active; 'I' for Inactive)
REMARK    1  A    between atoms: N2_1  and  C1_2 
REMARK    2  A    between atoms: C1_2  and  C2_3 
REMARK    3  A    between atoms: C2_3  and  C3_4 
REMARK       I    between atoms: C3_4  and  N1_6 
REMARK    4  A    between atoms: N1_6  and  C4_7 
REMARK    5  A    between atoms: C4_7  and  C13_8 
REMARK    6  A    between atoms: C4_7  and  C5_10 
REMARK    7  A    between atoms: C13_8  and  C7_9 
ROOT
HETATM    1  N2  BES   501      23.218   1.955  29.974  1.00  0.00    -0.079 N 
HETATM    2  H12 BES   501      23.145   2.768  30.664  1.00  0.00     0.274 HD
HETATM    3  H13 BES   501      24.098   1.385  30.187  1.00  0.00     0.274 HD
HETATM    4  H2  BES   501      22.356   1.328  30.069  1.00  0.00     0.274 HD
ENDROOT
BRANCH   1   5
HETATM    5  C1  BES   501      23.293   2.467  28.633  1.00  0.00     0.238 C 
BRANCH   5   6
HETATM    6  C2  BES   501      23.910   1.445  27.703  1.00  0.00     0.123 C 
BRANCH   6   7
HETATM    7  C3  BES   501      25.424   1.528  27.765  1.00  0.00     0.199 C 
HETATM    8  O3  BES   501      25.992   2.093  28.692  1.00  0.00    -0.280 OA
HETATM    9  N1  BES   501      26.199   0.951  26.661  1.00  0.00    -0.248 NA
HETATM   10  H7  BES   501      25.882   1.448  25.768  1.00  0.00     0.131 HD
BRANCH   9  11
HETATM   11  C4  BES   501      27.675   1.009  26.678  1.00  0.00     0.169 C 
BRANCH  11  12
HETATM   12  C13 BES   501      28.260  -0.270  27.281  1.00  0.00     0.091 C 
BRANCH  12  13
HETATM   13  C7  BES   501      29.480   0.069  28.157  1.00  0.00     0.053 A 
HETATM   14  C14 BES   501      29.496   1.047  29.347  1.00  0.00     0.116 A 
HETATM   15  N15 BES   501      30.924   1.074  29.923  1.00  0.00    -0.359 N 
HETATM   16  C16 BES   501      31.791   0.111  29.088  1.00  0.00     0.207 A 
HETATM   17  H13 BES   501      31.256   1.657  30.756  1.00  0.00     0.166 HD
HETATM   18  N17 BES   501      30.898  -0.509  27.998  1.00  0.00    -0.247 N 
ENDBRANCH  12  13
ENDBRANCH  11  12
BRANCH  11  19
HETATM   19  C5  BES   501      28.232   1.334  25.301  1.00  0.00     0.192 C 
HETATM   20  O1  BES   501      29.097   2.239  25.165  1.00  0.00    -0.647 OA
HETATM   21  O4  BES   501      27.845   0.691  24.288  1.00  0.00    -0.647 OA
ENDBRANCH  11  19
ENDBRANCH   9  11
ENDBRANCH   6   7
ENDBRANCH   5   6
ENDBRANCH   1   5
TORSDOF 7
ENDMDL
MODEL 2
REMARK VINA RESULT:    -5.869      1.669      5.283
REMARK INTER + INTRA:          -8.748
REMARK INTER:                  -7.890
REMARK INTRA:                  -0.858
REMARK UNBOUND:                -0.649
REMARK  7 active torsions:
REMARK  status: ('A' for Active; 'I' for Inactive)
REMARK    1  A    between atoms: N2_1  and  C1_2 
REMARK    2  A    between atoms: C1_2  and  C2_3 
REMARK    3  A    between atoms: C2_3  and  C3_4 
REMARK       I    between atoms: C3_4  and  N1_6 
REMARK    4  A    between atoms: N1_6  and  C4_7 
REMARK    5  A    between atoms: C4_7  and  C13_8 
REMARK    6  A    between atoms: C4_7  and  C5_10 
REMARK    7  A    between atoms: C13_8  and  C7_9 
ROOT
HETATM    1  N2  BES   501      30.928   0.331  29.812  1.00  0.00    -0.079 N 
HETATM    2  H12 BES   501      31.387   1.148  30.327  1.00  0.00     0.274 HD
HETATM    3  H13 BES   501      30.467  -0.323  30.522  1.00  0.00     0.274 HD
HETATM    4  H2  BES   501      30.186   0.704  29.138  1.00  0.00     0.274 HD
ENDROOT
BRANCH   1   5
HETATM    5  C1  BES   501      31.927  -0.392  29.073  1.00  0.00     0.238 C 
BRANCH   5   6
HETATM    6  C2  BES   501      31.281  -1.376  28.122  1.00  0.00     0.123 C 
BRANCH   6   7
HETATM    7  C3  BES   501      29.870  -0.931  27.787  1.00  0.00     0.199 C 
HETATM    8  O3  BES   501      28.895  -1.567  28.171  1.00  0.00    -0.280 OA
HETATM    9  N1  BES   501      29.696   0.264  26.952  1.00  0.00    -0.248 NA
HETATM   10  H7  BES   501      30.204   0.073  26.030  1.00  0.00     0.131 HD
BRANCH   9  11
HETATM   11  C4  BES   501      28.340   0.734  26.600  1.00  0.00     0.169 C 
BRANCH  11  12
HETATM   12  C13 BES   501      27.808   1.696  27.664  1.00  0.00     0.091 C 
BRANCH  12  13
HETATM   13  C7  BES   501      26.333   1.381  27.972  1.00  0.00     0.053 A 
HETATM   14  C14 BES   501      25.746   1.060  29.360  1.00  0.00     0.116 A 
HETATM   15  N15 BES   501      24.236   0.811  29.193  1.00  0.00    -0.359 N 
HETATM   16  C16 BES   501      23.888   0.978  27.701  1.00  0.00     0.207 A 
HETATM   17  H13 BES   501      23.548   0.566  29.975  1.00  0.00     0.166 HD
HETATM   18  N17 BES   501      25.184   1.330  26.948  1.00  0.00    -0.247 N 
ENDBRANCH  12  13
ENDBRANCH  11  12
BRANCH  11  19
HETATM   19  C5  BES   501      28.302   1.311  25.194  1.00  0.00     0.192 C 
HETATM   20  O1  BES   501      29.157   2.164  24.836  1.00  0.00    -0.647 OA
HETATM   21  O4  BES   501      27.426   0.930  24.372  1.00  0.00    -0.647 OA
ENDBRANCH  11  19
ENDBRANCH   9  11
ENDBRANCH   6   7
ENDBRANCH   5   6
ENDBRANCH   1   5
TORSDOF 7
ENDMDL
MODEL 3
REMARK VINA RESULT:    -5.744      1.907      6.371
REMARK INTER + INTRA:          -8.577
REMARK INTER:                  -7.720
REMARK INTRA:                  -0.857
REMARK UNBOUND:                -0.649
REMARK  7 active torsions:
REMARK  status: ('A' for Active; 'I' for Inactive)
REMARK    1  A    between atoms: N2_1  and  C1_2 
REMARK    2  A    between atoms: C1_2  and  C2_3 
REMARK    3  A    between atoms: C2_3  and  C3_4 
REMARK       I    between atoms: C3_4  and  N1_6 
REMARK    4  A    between atoms: N1_6  and  C4_7 
REMARK    5  A    between atoms: C4_7  and  C13_8 
REMARK    6  A    between atoms: C4_7  and  C5_10 
REMARK    7  A    between atoms: C13_8  and  C7_9 
ROOT
HETATM    1  N2  BES   501      29.670  -0.058  28.860  1.00  0.00    -0.079 N 
HETATM    2  H12 BES   501      28.613   0.099  28.836  1.00  0.00     0.274 HD
HETATM    3  H13 BES   501      30.165   0.877  29.021  1.00  0.00     0.274 HD
HETATM    4  H2  BES   501      29.913  -0.731  29.656  1.00  0.00     0.274 HD
ENDROOT
BRANCH   1   5
HETATM    5  C1  BES   501      30.102  -0.619  27.609  1.00  0.00     0.238 C 
BRANCH   5   6
HETATM    6  C2  BES   501      29.140  -0.253  26.499  1.00  0.00     0.123 C 
BRANCH   6   7
HETATM    7  C3  BES   501      28.053   0.664  27.029  1.00  0.00     0.199 C 
HETATM    8  O3  BES   501      28.158   1.882  26.956  1.00  0.00    -0.280 OA
HETATM    9  N1  BES   501      26.883   0.056  27.673  1.00  0.00    -0.248 NA
HETATM   10  H7  BES   501      27.249  -0.523  28.495  1.00  0.00     0.131 HD
BRANCH   9  11
HETATM   11  C4  BES   501      25.800   0.909  28.204  1.00  0.00     0.169 C 
BRANCH  11  12
HETATM   12  C13 BES   501      24.444   0.214  28.063  1.00  0.00     0.091 C 
BRANCH  12  13
HETATM   13  C7  BES   501      23.378   1.223  27.599  1.00  0.00     0.053 A 
HETATM   14  C14 BES   501      23.594   2.734  27.387  1.00  0.00     0.116 A 
HETATM   15  N15 BES   501      22.259   3.344  26.922  1.00  0.00    -0.359 N 
HETATM   16  C16 BES   501      21.218   2.211  26.846  1.00  0.00     0.207 A 
HETATM   17  H13 BES   501      22.084   4.375  26.692  1.00  0.00     0.166 HD
HETATM   18  N17 BES   501      21.910   0.901  27.264  1.00  0.00    -0.247 N 
ENDBRANCH  12  13
ENDBRANCH  11  12
BRANCH  11  19
HETATM   19  C5  BES   501      26.098   1.362  29.625  1.00  0.00     0.192 C 
HETATM   20  O1  BES   501      25.165   1.760  30.372  1.00  0.00    -0.647 OA
HETATM   21  O4  BES   501      27.277   1.330  30.071  1.00  0.00    -0.647 OA
ENDBRANCH  11  19
ENDBRANCH   9  11
ENDBRANCH   6   7
ENDBRANCH   5   6
ENDBRANCH   1   5
TORSDOF 7
ENDMDL
MODEL 4
REMARK VINA RESULT:    -5.639      2.544      5.639
REMARK INTER + INTRA:          -8.430
REMARK INTER:                  -7.583
REMARK INTRA:                  -0.848
REMARK UNBOUND:                -0.649
REMARK  7 active torsions:
REMARK  status: ('A' for Active; 'I' for Inactive)
REMARK    1  A    between atoms: N2_1  and  C1_2 
REMARK    2  A    between atoms: C1_2  and  C2_3 
REMARK    3  A    between atoms: C2_3  and  C3_4 
REMARK       I    between atoms: C3_4  and  N1_6 
REMARK    4  A    between atoms: N1_6  and  C4_7 
REMARK    5  A    between atoms: C4_7  and  C13_8 
REMARK    6  A    between atoms: C4_7  and  C5_10 
REMARK    7  A    between atoms: C13_8  and  C7_9 
ROOT
HETATM    1  N2  BES   501      29.355  -1.034  25.129  1.00  0.00    -0.079 N 
HETATM    2  H12 BES   501      29.367  -1.880  25.782  1.00  0.00     0.274 HD
HETATM    3  H13 BES   501      28.505  -1.096  24.482  1.00  0.00     0.274 HD
HETATM    4  H2  BES   501      29.297  -0.136  25.708  1.00  0.00     0.274 HD
ENDROOT
BRANCH   1   5
HETATM    5  C1  BES   501      30.557  -1.018  24.340  1.00  0.00     0.238 C 
BRANCH   5   6
HETATM    6  C2  BES   501      31.168   0.366  24.323  1.00  0.00     0.123 C 
BRANCH   6   7
HETATM    7  C3  BES   501      30.373   1.300  25.216  1.00  0.00     0.199 C 
HETATM    8  O3  BES   501      29.550   2.079  24.748  1.00  0.00    -0.280 OA
HETATM    9  N1  BES   501      30.641   1.282  26.658  1.00  0.00    -0.248 NA
HETATM   10  H7  BES   501      31.677   1.516  26.783  1.00  0.00     0.131 HD
BRANCH   9  11
HETATM   11  C4  BES   501      29.891   2.174  27.566  1.00  0.00     0.169 C 
BRANCH  11  12
HETATM   12  C13 BES   501      29.150   1.364  28.631  1.00  0.00     0.091 C 
BRANCH  12  13
HETATM   13  C7  BES   501      27.662   1.235  28.257  1.00  0.00     0.053 A 
HETATM   14  C14 BES   501      27.102   0.990  26.842  1.00  0.00     0.116 A 
HETATM   15  N15 BES   501      25.567   0.931  26.941  1.00  0.00    -0.359 N 
HETATM   16  C16 BES   501      25.177   1.138  28.417  1.00  0.00     0.207 A 
HETATM   17  H13 BES   501      24.890   0.773  26.127  1.00  0.00     0.166 HD
HETATM   18  N17 BES   501      26.471   1.326  29.229  1.00  0.00    -0.247 N 
ENDBRANCH  12  13
ENDBRANCH  11  12
BRANCH  11  19
HETATM   19  C5  BES   501      30.790   3.254  28.148  1.00  0.00     0.192 C 
HETATM   20  O1  BES   501      30.782   4.415  27.661  1.00  0.00    -0.647 OA
HETATM   21  O4  BES   501      31.538   3.000  29.130  1.00  0.00    -0.647 OA
ENDBRANCH  11  19
ENDBRANCH   9  11
ENDBRANCH   6   7
ENDBRANCH   5   6
ENDBRANCH   1   5
TORSDOF 7
ENDMDL
MODEL 5
REMARK VINA RESULT:    -5.589      2.484      5.232
REMARK INTER + INTRA:          -8.363
REMARK INTER:                  -7.774
REMARK INTRA:                  -0.589
REMARK UNBOUND:                -0.649
REMARK  7 active torsions:
REMARK  status: ('A' for Active; 'I' for Inactive)
REMARK    1  A    between atoms: N2_1  and  C1_2 
REMARK    2  A    between atoms: C1_2  and  C2_3 
REMARK    3  A    between atoms: C2_3  and  C3_4 
REMARK       I    between atoms: C3_4  and  N1_6 
REMARK    4  A    between atoms: N1_6  and  C4_7 
REMARK    5  A    between atoms: C4_7  and  C13_8 
REMARK    6  A    between atoms: C4_7  and  C5_10 
REMARK    7  A    between atoms: C13_8  and  C7_9 
ROOT
HETATM    1  N2  BES   501      31.598   2.461  29.663  1.00  0.00    -0.079 N 
HETATM    2  H12 BES   501      30.817   1.784  29.388  1.00  0.00     0.274 HD
HETATM    3  H13 BES   501      31.410   2.839  30.646  1.00  0.00     0.274 HD
HETATM    4  H2  BES   501      32.536   1.947  29.653  1.00  0.00     0.274 HD
ENDROOT
BRANCH   1   5
HETATM    5  C1  BES   501      31.639   3.553  28.730  1.00  0.00     0.238 C 
BRANCH   5   6
HETATM    6  C2  BES   501      31.894   3.049  27.326  1.00  0.00     0.123 C 
BRANCH   6   7
HETATM    7  C3  BES   501      31.044   1.822  27.048  1.00  0.00     0.199 C 
HETATM    8  O3  BES   501      31.367   0.717  27.469  1.00  0.00    -0.280 OA
HETATM    9  N1  BES   501      29.841   1.980  26.224  1.00  0.00    -0.248 NA
HETATM   10  H7  BES   501      30.162   2.374  25.282  1.00  0.00     0.131 HD
BRANCH   9  11
HETATM   11  C4  BES   501      28.984   0.814  25.927  1.00  0.00     0.169 C 
BRANCH  11  12
HETATM   12  C13 BES   501      27.534   1.250  25.706  1.00  0.00     0.091 C 
BRANCH  12  13
HETATM   13  C7  BES   501      26.713   1.024  26.988  1.00  0.00     0.053 A 
HETATM   14  C14 BES   501      27.276   0.624  28.365  1.00  0.00     0.116 A 
HETATM   15  N15 BES   501      26.096   0.509  29.348  1.00  0.00    -0.359 N 
HETATM   16  C16 BES   501      24.803   0.840  28.578  1.00  0.00     0.207 A 
HETATM   17  H13 BES   501      26.162   0.248  30.383  1.00  0.00     0.166 HD
HETATM   18  N17 BES   501      25.185   1.157  27.121  1.00  0.00    -0.247 N 
ENDBRANCH  12  13
ENDBRANCH  11  12
BRANCH  11  19
HETATM   19  C5  BES   501      29.547  -0.008  24.778  1.00  0.00     0.192 C 
HETATM   20  O1  BES   501      29.701   0.513  23.642  1.00  0.00    -0.647 OA
HETATM   21  O4  BES   501      29.878  -1.211  24.956  1.00  0.00    -0.647 OA
ENDBRANCH  11  19
ENDBRANCH   9  11
ENDBRANCH   6   7
ENDBRANCH   5   6
ENDBRANCH   1   5
TORSDOF 7
ENDMDL
MODEL 6
REMARK VINA RESULT:    -5.521      2.211      3.011
REMARK INTER + INTRA:          -8.269
REMARK INTER:                  -7.710
REMARK INTRA:                  -0.559
REMARK UNBOUND:                -0.649
REMARK  7 active torsions:
REMARK  status: ('A' for Active; 'I' for Inactive)
REMARK    1  A    between atoms: N2_1  and  C1_2 
REMARK    2  A    between atoms: C1_2  and  C2_3 
REMARK    3  A    between atoms: C2_3  and  C3_4 
REMARK       I    between atoms: C3_4  and  N1_6 
REMARK    4  A    between atoms: N1_6  and  C4_7 
REMARK    5  A    between atoms: C4_7  and  C13_8 
REMARK    6  A    between atoms: C4_7  and  C5_10 
REMARK    7  A    between atoms: C13_8  and  C7_9 
ROOT
HETATM    1  N2  BES   501      23.294   1.720  29.585  1.00  0.00    -0.079 N 
HETATM    2  H12 BES   501      23.172   1.084  30.436  1.00  0.00     0.274 HD
HETATM    3  H13 BES   501      22.360   2.187  29.354  1.00  0.00     0.274 HD
HETATM    4  H2  BES   501      24.024   2.471  29.802  1.00  0.00     0.274 HD
ENDROOT
BRANCH   1   5
HETATM    5  C1  BES   501      23.729   0.938  28.460  1.00  0.00     0.238 C 
BRANCH   5   6
HETATM    6  C2  BES   501      24.838   1.647  27.712  1.00  0.00     0.123 C 
BRANCH   6   7
HETATM    7  C3  BES   501      26.172   1.391  28.388  1.00  0.00     0.199 C 
HETATM    8  O3  BES   501      26.273   1.376  29.609  1.00  0.00    -0.280 OA
HETATM    9  N1  BES   501      27.356   1.201  27.542  1.00  0.00    -0.248 NA
HETATM   10  H7  BES   501      27.456   2.086  26.949  1.00  0.00     0.131 HD
BRANCH   9  11
HETATM   11  C4  BES   501      28.676   0.950  28.156  1.00  0.00     0.169 C 
BRANCH  11  12
HETATM   12  C13 BES   501      29.163  -0.464  27.831  1.00  0.00     0.091 C 
BRANCH  12  13
HETATM   13  C7  BES   501      29.817  -0.491  26.438  1.00  0.00     0.053 A 
HETATM   14  C14 BES   501      31.284  -0.847  26.132  1.00  0.00     0.116 A 
HETATM   15  N15 BES   501      31.494  -0.742  24.611  1.00  0.00    -0.359 N 
HETATM   16  C16 BES   501      30.155  -0.322  23.974  1.00  0.00     0.207 A 
HETATM   17  H13 BES   501      32.407  -0.930  24.086  1.00  0.00     0.166 HD
HETATM   18  N17 BES   501      29.120  -0.167  25.104  1.00  0.00    -0.247 N 
ENDBRANCH  12  13
ENDBRANCH  11  12
BRANCH  11  19
HETATM   19  C5  BES   501      29.676   2.032  27.781  1.00  0.00     0.192 C 
HETATM   20  O1  BES   501      29.383   2.891  26.908  1.00  0.00    -0.647 OA
HETATM   21  O4  BES   501      30.799   2.087  28.350  1.00  0.00    -0.647 OA
ENDBRANCH  11  19
ENDBRANCH   9  11
ENDBRANCH   6   7
ENDBRANCH   5   6
ENDBRANCH   1   5
TORSDOF 7
ENDMDL
MODEL 7
REMARK VINA RESULT:    -5.478      2.221      5.848
REMARK INTER + INTRA:          -8.208
REMARK INTER:                  -7.282
REMARK INTRA:                  -0.926
REMARK UNBOUND:                -0.649
REMARK  7 active torsions:
REMARK  status: ('A' for Active; 'I' for Inactive)
REMARK    1  A    between atoms: N2_1  and  C1_2 
REMARK    2  A    between atoms: C1_2  and  C2_3 
REMARK    3  A    between atoms: C2_3  and  C3_4 
REMARK       I    between atoms: C3_4  and  N1_6 
REMARK    4  A    between atoms: N1_6  and  C4_7 
REMARK    5  A    between atoms: C4_7  and  C13_8 
REMARK    6  A    between atoms: C4_7  and  C5_10 
REMARK    7  A    between atoms: C13_8  and  C7_9 
ROOT
HETATM    1  N2  BES   501      31.752   0.607  24.990  1.00  0.00    -0.079 N 
HETATM    2  H12 BES   501      32.206   0.497  25.952  1.00  0.00     0.274 HD
HETATM    3  H13 BES   501      30.747   0.953  25.110  1.00  0.00     0.274 HD
HETATM    4  H2  BES   501      32.307   1.317  24.413  1.00  0.00     0.274 HD
ENDROOT
BRANCH   1   5
HETATM    5  C1  BES   501      31.745  -0.661  24.313  1.00  0.00     0.238 C 
BRANCH   5   6
HETATM    6  C2  BES   501      30.344  -1.230  24.259  1.00  0.00     0.123 C 
BRANCH   6   7
HETATM    7  C3  BES   501      29.358  -0.253  24.873  1.00  0.00     0.199 C 
HETATM    8  O3  BES   501      28.837   0.630  24.201  1.00  0.00    -0.280 OA
HETATM    9  N1  BES   501      29.070  -0.363  26.307  1.00  0.00    -0.248 NA
HETATM   10  H7  BES   501      30.003  -0.249  26.819  1.00  0.00     0.131 HD
BRANCH   9  11
HETATM   11  C4  BES   501      28.117   0.566  26.948  1.00  0.00     0.169 C 
BRANCH  11  12
HETATM   12  C13 BES   501      27.235  -0.173  27.956  1.00  0.00     0.091 C 
BRANCH  12  13
HETATM   13  C7  BES   501      25.911   0.587  28.157  1.00  0.00     0.053 A 
HETATM   14  C14 BES   501      25.512   1.394  29.408  1.00  0.00     0.116 A 
HETATM   15  N15 BES   501      24.108   1.980  29.169  1.00  0.00    -0.359 N 
HETATM   16  C16 BES   501      23.640   1.536  27.769  1.00  0.00     0.207 A 
HETATM   17  H13 BES   501      23.555   2.589  29.853  1.00  0.00     0.166 HD
HETATM   18  N17 BES   501      24.754   0.676  27.146  1.00  0.00    -0.247 N 
ENDBRANCH  12  13
ENDBRANCH  11  12
BRANCH  11  19
HETATM   19  C5  BES   501      28.832   1.769  27.543  1.00  0.00     0.192 C 
HETATM   20  O1  BES   501      29.340   1.699  28.693  1.00  0.00    -0.647 OA
HETATM   21  O4  BES   501      28.935   2.840  26.886  1.00  0.00    -0.647 OA
ENDBRANCH  11  19
ENDBRANCH   9  11
ENDBRANCH   6   7
ENDBRANCH   5   6
ENDBRANCH   1   5
TORSDOF 7
ENDMDL
MODEL 8
REMARK VINA RESULT:    -5.477      2.167      2.563
REMARK INTER + INTRA:          -8.208
REMARK INTER:                  -7.954
REMARK INTRA:                  -0.254
REMARK UNBOUND:                -0.649
REMARK  7 active torsions:
REMARK  status: ('A' for Active; 'I' for Inactive)
REMARK    1  A    between atoms: N2_1  and  C1_2 
REMARK    2  A    between atoms: C1_2  and  C2_3 
REMARK    3  A    between atoms: C2_3  and  C3_4 
REMARK       I    between atoms: C3_4  and  N1_6 
REMARK    4  A    between atoms: N1_6  and  C4_7 
REMARK    5  A    between atoms: C4_7  and  C13_8 
REMARK    6  A    between atoms: C4_7  and  C5_10 
REMARK    7  A    between atoms: C13_8  and  C7_9 
ROOT
HETATM    1  N2  BES   501      25.247  -0.447  28.747  1.00  0.00    -0.079 N 
HETATM    2  H12 BES   501      24.937  -0.469  29.771  1.00  0.00     0.274 HD
HETATM    3  H13 BES   501      26.094  -1.087  28.618  1.00  0.00     0.274 HD
HETATM    4  H2  BES   501      24.446  -0.786  28.124  1.00  0.00     0.274 HD
ENDROOT
BRANCH   1   5
HETATM    5  C1  BES   501      25.603   0.897  28.382  1.00  0.00     0.238 C 
BRANCH   5   6
HETATM    6  C2  BES   501      25.945   0.979  26.910  1.00  0.00     0.123 C 
BRANCH   6   7
HETATM    7  C3  BES   501      27.441   1.158  26.730  1.00  0.00     0.199 C 
HETATM    8  O3  BES   501      28.030   2.113  27.222  1.00  0.00    -0.280 OA
HETATM    9  N1  BES   501      28.166   0.179  25.912  1.00  0.00    -0.248 NA
HETATM   10  H7  BES   501      27.716   0.195  24.941  1.00  0.00     0.131 HD
BRANCH   9  11
HETATM   11  C4  BES   501      29.623   0.314  25.708  1.00  0.00     0.169 C 
BRANCH  11  12
HETATM   12  C13 BES   501      30.390  -0.214  26.922  1.00  0.00     0.091 C 
BRANCH  12  13
HETATM   13  C7  BES   501      30.934   0.961  27.755  1.00  0.00     0.053 A 
HETATM   14  C14 BES   501      31.005   1.024  29.293  1.00  0.00     0.116 A 
HETATM   15  N15 BES   501      31.617   2.381  29.687  1.00  0.00    -0.359 N 
HETATM   16  C16 BES   501      31.925   3.157  28.392  1.00  0.00     0.207 A 
HETATM   17  H13 BES   501      31.797   2.724  30.684  1.00  0.00     0.166 HD
HETATM   18  N17 BES   501      31.503   2.279  27.199  1.00  0.00    -0.247 N 
ENDBRANCH  12  13
ENDBRANCH  11  12
BRANCH  11  19
HETATM   19  C5  BES   501      30.059  -0.322  24.397  1.00  0.00     0.192 C 
HETATM   20  O1  BES   501      30.716  -1.396  24.402  1.00  0.00    -0.647 OA
HETATM   21  O4  BES   501      29.756   0.212  23.297  1.00  0.00    -0.647 OA
ENDBRANCH  11  19
ENDBRANCH   9  11
ENDBRANCH   6   7
ENDBRANCH   5   6
ENDBRANCH   1   5
TORSDOF 7
ENDMDL
MODEL 9
REMARK VINA RESULT:    -5.427      2.098      5.708
REMARK INTER + INTRA:          -8.139
REMARK INTER:                  -7.321
REMARK INTRA:                  -0.818
REMARK UNBOUND:                -0.649
REMARK  7 active torsions:
REMARK  status: ('A' for Active; 'I' for Inactive)
REMARK    1  A    between atoms: N2_1  and  C1_2 
REMARK    2  A    between atoms: C1_2  and  C2_3 
REMARK    3  A    between atoms: C2_3  and  C3_4 
REMARK       I    between atoms: C3_4  and  N1_6 
REMARK    4  A    between atoms: N1_6  and  C4_7 
REMARK    5  A    between atoms: C4_7  and  C13_8 
REMARK    6  A    between atoms: C4_7  and  C5_10 
REMARK    7  A    between atoms: C13_8  and  C7_9 
ROOT
HETATM    1  N2  BES   501      30.041  -2.731  29.482  1.00  0.00    -0.079 N 
HETATM    2  H12 BES   501      29.929  -1.834  30.054  1.00  0.00     0.274 HD
HETATM    3  H13 BES   501      29.756  -3.572  30.080  1.00  0.00     0.274 HD
HETATM    4  H2  BES   501      29.416  -2.682  28.615  1.00  0.00     0.274 HD
ENDROOT
BRANCH   1   5
HETATM    5  C1  BES   501      31.413  -2.874  29.078  1.00  0.00     0.238 C 
BRANCH   5   6
HETATM    6  C2  BES   501      31.926  -1.591  28.461  1.00  0.00     0.123 C 
BRANCH   6   7
HETATM    7  C3  BES   501      30.797  -0.860  27.758  1.00  0.00     0.199 C 
HETATM    8  O3  BES   501      30.431  -1.188  26.636  1.00  0.00    -0.280 OA
HETATM    9  N1  BES   501      30.177   0.283  28.438  1.00  0.00    -0.248 NA
HETATM   10  H7  BES   501      30.957   0.991  28.625  1.00  0.00     0.131 HD
BRANCH   9  11
HETATM   11  C4  BES   501      29.076   1.024  27.791  1.00  0.00     0.169 C 
BRANCH  11  12
HETATM   12  C13 BES   501      28.043   1.473  28.828  1.00  0.00     0.091 C 
BRANCH  12  13
HETATM   13  C7  BES   501      26.624   1.117  28.348  1.00  0.00     0.053 A 
HETATM   14  C14 BES   501      26.192   0.889  26.887  1.00  0.00     0.116 A 
HETATM   15  N15 BES   501      24.689   0.558  26.880  1.00  0.00    -0.359 N 
HETATM   16  C16 BES   501      24.191   0.579  28.338  1.00  0.00     0.207 A 
HETATM   17  H13 BES   501      24.094   0.348  26.015  1.00  0.00     0.166 HD
HETATM   18  N17 BES   501      25.386   0.925  29.244  1.00  0.00    -0.247 N 
ENDBRANCH  12  13
ENDBRANCH  11  12
BRANCH  11  19
HETATM   19  C5  BES   501      29.604   2.165  26.936  1.00  0.00     0.192 C 
HETATM   20  O1  BES   501      30.333   3.056  27.447  1.00  0.00    -0.647 OA
HETATM   21  O4  BES   501      29.329   2.222  25.707  1.00  0.00    -0.647 OA
ENDBRANCH  11  19
ENDBRANCH   9  11
ENDBRANCH   6   7
ENDBRANCH   5   6
ENDBRANCH   1   5
TORSDOF 7
ENDMDL
