MODEL 1
REMARK VINA RESULT:     4.325      0.000      0.000
REMARK INTER + INTRA:           6.851
REMARK INTER:                   6.348
REMARK INTRA:                   0.503
REMARK UNBOUND:                 0.503
REMARK  10 active torsions:
REMARK  status: ('A' for Active; 'I' for Inactive)
REMARK    1  A    between atoms: O1_1  and  C31_31 
REMARK    2  A    between atoms: O1_1  and  C21_21 
REMARK    3  A    between atoms: O3_3  and  C41_41 
REMARK    4  A    between atoms: O4_4  and  C43_43 
REMARK    5  A    between atoms: C18_18  and  C25_25 
REMARK    6  A    between atoms: C25_25  and  C28_28 
REMARK    7  A    between atoms: C28_28  and  C30_30 
REMARK    8  A    between atoms: C30_30  and  C32_32 
REMARK    9  A    between atoms: C31_31  and  C33_33 
REMARK   10  A    between atoms: C35_35  and  C38_38 
ROOT
HETATM    1  O1  UNK     0      41.081  25.264 240.831  1.00  0.00    -0.312 OA
ENDROOT
BRANCH   1   2
HETATM    2  C31 UNK     0      40.005  24.983 239.698  1.00  0.00     0.283 C 
HETATM    3  O2  UNK     0      38.920  24.498 240.031  1.00  0.00    -0.260 OA
BRANCH   2   4
HETATM    4  C33 UNK     0      40.201  25.375 238.088  1.00  0.00     0.083 C 
HETATM    5  C35 UNK     0      40.670  26.607 237.653  1.00  0.00     0.017 C 
BRANCH   5   6
HETATM    6  C38 UNK     0      41.019  27.142 236.131  1.00  0.00    -0.033 A 
HETATM    7  C39 UNK     0      40.081  27.079 235.153  1.00  0.00     0.051 A 
HETATM    8  C41 UNK     0      40.353  27.603 233.732  1.00  0.00     0.102 A 
HETATM    9  C43 UNK     0      41.513  28.183 233.451  1.00  0.00     0.099 A 
HETATM   10  C42 UNK     0      42.552  28.260 234.509  1.00  0.00     0.040 A 
HETATM   11  C40 UNK     0      42.329  27.784 235.756  1.00  0.00     0.014 A 
BRANCH   8  12
HETATM   12  O3  UNK     0      39.391  27.538 232.685  1.00  0.00    -0.353 OA
HETATM   13  C44 UNK     0      39.493  26.340 231.922  1.00  0.00     0.210 C 
ENDBRANCH   8  12
BRANCH   9  14
HETATM   14  O4  UNK     0      41.734  28.678 232.127  1.00  0.00    -0.358 OA
HETATM   15  H99 UNK     0      42.686  28.596 231.862  1.00  0.00     0.217 HD
ENDBRANCH   9  14
ENDBRANCH   5   6
ENDBRANCH   2   4
ENDBRANCH   1   2
BRANCH   1  16
HETATM   16  C21 UNK     0      42.528  24.460 240.927  1.00  0.00     0.140 C 
HETATM   17  C17 UNK     0      43.294  24.417 239.466  1.00  0.00    -0.017 C 
HETATM   18  C9  UNK     0      44.807  23.674 239.549  1.00  0.00     0.005 C 
HETATM   19  C27 UNK     0      42.361  23.690 238.460  1.00  0.00     0.018 C 
HETATM   20  C26 UNK     0      43.495  25.859 238.965  1.00  0.00     0.018 C 
HETATM   21  C6  UNK     0      44.744  22.213 240.104  1.00  0.00    -0.027 A 
HETATM   22  C15 UNK     0      45.517  23.613 238.121  1.00  0.00     0.007 C 
HETATM   23  C5  UNK     0      46.050  21.223 239.892  1.00  0.00    -0.027 A 
HETATM   24  C7  UNK     0      44.470  21.168 239.229  1.00  0.00     0.021 A 
HETATM   25  C13 UNK     0      43.956  22.213 241.490  1.00  0.00     0.013 C 
HETATM   26  C8  UNK     0      46.860  21.368 238.533  1.00  0.00     0.004 C 
HETATM   27  C11 UNK     0      46.073  19.683 240.347  1.00  0.00     0.011 C 
HETATM   28  C10 UNK     0      48.359  20.671 238.638  1.00  0.00    -0.032 C 
HETATM   29  C14 UNK     0      46.944  22.905 238.167  1.00  0.00     0.007 C 
HETATM   30  C19 UNK     0      49.174  20.584 237.285  1.00  0.00     0.011 C 
HETATM   31  C23 UNK     0      49.195  21.452 239.702  1.00  0.00     0.016 C 
HETATM   32  C12 UNK     0      48.301  19.155 239.026  1.00  0.00    -0.032 C 
HETATM   33  C22 UNK     0      50.102  19.243 237.408  1.00  0.00     0.006 C 
HETATM   34  C18 UNK     0      49.903  18.717 238.867  1.00  0.00    -0.002 C 
HETATM   35  C16 UNK     0      47.578  19.066 240.433  1.00  0.00     0.011 C 
HETATM   36  C24 UNK     0      47.490  18.337 237.978  1.00  0.00     0.016 C 
HETATM   37  C20 UNK     0      42.455  22.918 241.378  1.00  0.00     0.034 C 
BRANCH  34  38
HETATM   38  C25 UNK     0      50.361  17.129 239.058  1.00  0.00    -0.014 C 
HETATM   39  C29 UNK     0      51.845  16.943 238.680  1.00  0.00     0.010 C 
BRANCH  38  40
HETATM   40  C28 UNK     0      49.522  16.084 238.171  1.00  0.00     0.008 C 
BRANCH  40  41
HETATM   41  C30 UNK     0      49.174  14.767 239.030  1.00  0.00     0.028 C 
BRANCH  41  42
HETATM   42  C32 UNK     0      49.090  15.018 240.557  1.00  0.00    -0.025 C 
HETATM   43  C34 UNK     0      48.127  14.466 241.322  1.00  0.00    -0.091 C 
HETATM   44  C36 UNK     0      48.095  14.725 242.811  1.00  0.00     0.042 C 
HETATM   45  C37 UNK     0      47.065  13.583 240.715  1.00  0.00     0.042 C 
ENDBRANCH  41  42
ENDBRANCH  40  41
ENDBRANCH  38  40
ENDBRANCH  34  38
ENDBRANCH   1  16
TORSDOF 10
ENDMDL
