MODEL 1
REMARK VINA RESULT:    -8.192      0.000      0.000
REMARK INTER + INTRA:          -9.150
REMARK INTER:                  -9.150
REMARK INTRA:                   0.000
REMARK UNBOUND:                 0.000
REMARK  Name = BCBL.pdb
REMARK  4 active torsions:
REMARK  status: ('A' for Active; 'I' for Inactive)
REMARK    1  A    between atoms: O1_1  and  C6_6
REMARK    2  A    between atoms: O3_3  and  C17_17
REMARK    3  A    between atoms: O4_4  and  C18_18
REMARK    4  A    between atoms: O5_5  and  C21_21
REMARK                            x       y       z     vdW  Elec       q    Type
REMARK                         _______ _______ _______ _____ _____    ______ ____
ROOT
ATOM      1  O2  UNK B   0     -16.221 -49.156 -18.850  0.00  0.00    +0.000 OA
ATOM      2  C6  UNK B   0     -14.217 -48.905 -20.238  0.00  0.00    +0.000 C 
ATOM      3  C7  UNK B   0     -15.046 -49.059 -21.546  0.00  0.00    +0.000 C 
ATOM      4  C8  UNK B   0     -14.035 -47.389 -19.975  0.00  0.00    +0.000 C 
ATOM      5  C9  UNK B   0     -14.732 -47.751 -22.236  0.00  0.00    +0.000 A 
ATOM      6  C10 UNK B   0     -14.169 -46.824 -21.353  0.00  0.00    +0.000 A 
ATOM      7  C11 UNK B   0     -14.888 -49.617 -19.070  0.00  0.00    +0.000 C 
ATOM      8  C12 UNK B   0     -16.516 -49.274 -21.268  0.00  0.00    +0.000 A 
ATOM      9  C13 UNK B   0     -17.017 -49.289 -19.959  0.00  0.00    +0.000 A 
ATOM     10  C14 UNK B   0     -14.923 -47.423 -23.571  0.00  0.00    +0.000 A 
ATOM     11  C15 UNK B   0     -13.823 -45.548 -21.773  0.00  0.00    +0.000 A 
ATOM     12  C16 UNK B   0     -17.418 -49.472 -22.326  0.00  0.00    +0.000 A 
ATOM     13  C17 UNK B   0     -14.568 -46.143 -24.005  0.00  0.00    +0.000 A 
ATOM     14  C18 UNK B   0     -14.026 -45.211 -23.111  0.00  0.00    +0.000 A 
ATOM     15  C19 UNK B   0     -18.388 -49.422 -19.716  0.00  0.00    +0.000 A 
ATOM     16  C20 UNK B   0     -18.784 -49.627 -22.083  0.00  0.00    +0.000 A 
ATOM     17  C21 UNK B   0     -19.270 -49.592 -20.780  0.00  0.00    +0.000 A 
ENDROOT
BRANCH   2  18
ATOM     18  O1  UNK B   0     -12.930 -49.510 -20.412  0.00  0.00    +0.000 OA
ATOM     19  H28 UNK B   0     -12.543 -49.168 -21.236  0.00  0.00    +0.000 HD
ENDBRANCH   2  18
BRANCH  13  20
ATOM     20  O3  UNK B   0     -14.757 -45.810 -25.314  0.00  0.00    +0.000 OA
ATOM     21  H33 UNK B   0     -14.682 -44.845 -25.409  0.00  0.00    +0.000 HD
ENDBRANCH  13  20
BRANCH  14  22
ATOM     22  O4  UNK B   0     -13.685 -43.963 -23.541  0.00  0.00    +0.000 OA
ATOM     23  H34 UNK B   0     -12.938 -44.033 -24.158  0.00  0.00    +0.000 HD
ENDBRANCH  14  22
BRANCH  17  24
ATOM     24  O5  UNK B   0     -20.603 -49.733 -20.544  0.00  0.00    +0.000 OA
ATOM     25  H35 UNK B   0     -20.767 -49.629 -19.591  0.00  0.00    +0.000 HD
ENDBRANCH  17  24
TORSDOF 4
ENDMDL
MODEL 2
REMARK VINA RESULT:    -7.795      1.639      2.567
REMARK INTER + INTRA:          -8.706
REMARK INTER:                  -8.706
REMARK INTRA:                   0.000
REMARK UNBOUND:                 0.000
REMARK  Name = BCBL.pdb
REMARK  4 active torsions:
REMARK  status: ('A' for Active; 'I' for Inactive)
REMARK    1  A    between atoms: O1_1  and  C6_6
REMARK    2  A    between atoms: O3_3  and  C17_17
REMARK    3  A    between atoms: O4_4  and  C18_18
REMARK    4  A    between atoms: O5_5  and  C21_21
REMARK                            x       y       z     vdW  Elec       q    Type
REMARK                         _______ _______ _______ _____ _____    ______ ____
ROOT
ATOM      1  O2  UNK B   0     -12.845 -49.421 -20.294  0.00  0.00    +0.000 OA
ATOM      2  C6  UNK B   0     -12.315 -48.916 -22.632  0.00  0.00    +0.000 C 
ATOM      3  C7  UNK B   0     -13.823 -48.805 -22.999  0.00  0.00    +0.000 C 
ATOM      4  C8  UNK B   0     -11.792 -47.483 -22.367  0.00  0.00    +0.000 C 
ATOM      5  C9  UNK B   0     -13.884 -47.389 -23.525  0.00  0.00    +0.000 A 
ATOM      6  C10 UNK B   0     -12.748 -46.657 -23.168  0.00  0.00    +0.000 A 
ATOM      7  C11 UNK B   0     -12.102 -49.839 -21.439  0.00  0.00    +0.000 C 
ATOM      8  C12 UNK B   0     -14.721 -49.062 -21.810  0.00  0.00    +0.000 A 
ATOM      9  C13 UNK B   0     -14.190 -49.330 -20.539  0.00  0.00    +0.000 A 
ATOM     10  C14 UNK B   0     -14.885 -46.804 -24.289  0.00  0.00    +0.000 A 
ATOM     11  C15 UNK B   0     -12.605 -45.326 -23.530  0.00  0.00    +0.000 A 
ATOM     12  C16 UNK B   0     -16.117 -49.043 -21.956  0.00  0.00    +0.000 A 
ATOM     13  C17 UNK B   0     -14.745 -45.467 -24.668  0.00  0.00    +0.000 A 
ATOM     14  C18 UNK B   0     -13.615 -44.731 -24.287  0.00  0.00    +0.000 A 
ATOM     15  C19 UNK B   0     -15.028 -49.499 -19.433  0.00  0.00    +0.000 A 
ATOM     16  C20 UNK B   0     -16.955 -49.234 -20.855  0.00  0.00    +0.000 A 
ATOM     17  C21 UNK B   0     -16.411 -49.452 -19.592  0.00  0.00    +0.000 A 
ENDROOT
BRANCH   2  18
ATOM     18  O1  UNK B   0     -11.595 -49.483 -23.733  0.00  0.00    +0.000 OA
ATOM     19  H28 UNK B   0     -12.175 -50.124 -24.177  0.00  0.00    +0.000 HD
ENDBRANCH   2  18
BRANCH  13  20
ATOM     20  O3  UNK B   0     -15.726 -44.882 -25.414  0.00  0.00    +0.000 OA
ATOM     21  H33 UNK B   0     -15.418 -44.801 -26.333  0.00  0.00    +0.000 HD
ENDBRANCH  13  20
BRANCH  14  22
ATOM     22  O4  UNK B   0     -13.488 -43.425 -24.656  0.00  0.00    +0.000 OA
ATOM     23  H34 UNK B   0     -14.323 -42.962 -24.476  0.00  0.00    +0.000 HD
ENDBRANCH  14  22
BRANCH  17  24
ATOM     24  O5  UNK B   0     -17.228 -49.628 -18.519  0.00  0.00    +0.000 OA
ATOM     25  H35 UNK B   0     -17.242 -48.807 -17.995  0.00  0.00    +0.000 HD
ENDBRANCH  17  24
TORSDOF 4
ENDMDL
MODEL 3
REMARK VINA RESULT:    -7.263      2.592      5.243
REMARK INTER + INTRA:          -8.112
REMARK INTER:                  -8.112
REMARK INTRA:                   0.000
REMARK UNBOUND:                 0.000
REMARK  Name = BCBL.pdb
REMARK  4 active torsions:
REMARK  status: ('A' for Active; 'I' for Inactive)
REMARK    1  A    between atoms: O1_1  and  C6_6
REMARK    2  A    between atoms: O3_3  and  C17_17
REMARK    3  A    between atoms: O4_4  and  C18_18
REMARK    4  A    between atoms: O5_5  and  C21_21
REMARK                            x       y       z     vdW  Elec       q    Type
REMARK                         _______ _______ _______ _____ _____    ______ ____
ROOT
ATOM      1  O2  UNK B   0     -13.491 -49.888 -18.786  0.00  0.00    +0.000 OA
ATOM      2  C6  UNK B   0     -15.077 -48.179 -19.541  0.00  0.00    +0.000 C 
ATOM      3  C7  UNK B   0     -15.162 -48.816 -20.958  0.00  0.00    +0.000 C 
ATOM      4  C8  UNK B   0     -16.277 -48.706 -18.718  0.00  0.00    +0.000 C 
ATOM      5  C9  UNK B   0     -16.642 -49.109 -21.049  0.00  0.00    +0.000 A 
ATOM      6  C10 UNK B   0     -17.258 -49.046 -19.795  0.00  0.00    +0.000 A 
ATOM      7  C11 UNK B   0     -13.741 -48.486 -18.876  0.00  0.00    +0.000 C 
ATOM      8  C12 UNK B   0     -14.281 -50.038 -21.089  0.00  0.00    +0.000 A 
ATOM      9  C13 UNK B   0     -13.524 -50.511 -20.007  0.00  0.00    +0.000 A 
ATOM     10  C14 UNK B   0     -17.389 -49.394 -22.184  0.00  0.00    +0.000 A 
ATOM     11  C15 UNK B   0     -18.613 -49.303 -19.644  0.00  0.00    +0.000 A 
ATOM     12  C16 UNK B   0     -14.198 -50.727 -22.310  0.00  0.00    +0.000 A 
ATOM     13  C17 UNK B   0     -18.756 -49.643 -22.043  0.00  0.00    +0.000 A 
ATOM     14  C18 UNK B   0     -19.363 -49.602 -20.781  0.00  0.00    +0.000 A 
ATOM     15  C19 UNK B   0     -12.765 -51.680 -20.120  0.00  0.00    +0.000 A 
ATOM     16  C20 UNK B   0     -13.422 -51.883 -22.428  0.00  0.00    +0.000 A 
ATOM     17  C21 UNK B   0     -12.714 -52.364 -21.331  0.00  0.00    +0.000 A 
ENDROOT
BRANCH   2  18
ATOM     18  O1  UNK B   0     -15.171 -46.754 -19.651  0.00  0.00    +0.000 OA
ATOM     19  H28 UNK B   0     -14.568 -46.463 -20.357  0.00  0.00    +0.000 HD
ENDBRANCH   2  18
BRANCH  13  20
ATOM     20  O3  UNK B   0     -19.497 -49.929 -23.152  0.00  0.00    +0.000 OA
ATOM     21  H33 UNK B   0     -20.198 -49.262 -23.245  0.00  0.00    +0.000 HD
ENDBRANCH  13  20
BRANCH  14  22
ATOM     22  O4  UNK B   0     -20.697 -49.850 -20.651  0.00  0.00    +0.000 OA
ATOM     23  H34 UNK B   0     -20.978 -50.452 -21.361  0.00  0.00    +0.000 HD
ENDBRANCH  14  22
BRANCH  17  24
ATOM     24  O5  UNK B   0     -11.967 -53.496 -21.445  0.00  0.00    +0.000 OA
ATOM     25  H35 UNK B   0     -11.585 -53.532 -22.339  0.00  0.00    +0.000 HD
ENDBRANCH  17  24
TORSDOF 4
ENDMDL
MODEL 4
REMARK VINA RESULT:    -6.995      1.458      5.804
REMARK INTER + INTRA:          -7.812
REMARK INTER:                  -7.812
REMARK INTRA:                   0.000
REMARK UNBOUND:                 0.000
REMARK  Name = BCBL.pdb
REMARK  4 active torsions:
REMARK  status: ('A' for Active; 'I' for Inactive)
REMARK    1  A    between atoms: O1_1  and  C6_6
REMARK    2  A    between atoms: O3_3  and  C17_17
REMARK    3  A    between atoms: O4_4  and  C18_18
REMARK    4  A    between atoms: O5_5  and  C21_21
REMARK                            x       y       z     vdW  Elec       q    Type
REMARK                         _______ _______ _______ _____ _____    ______ ____
ROOT
ATOM      1  O2  UNK B   0     -14.101 -48.120 -23.367  0.00  0.00    +0.000 OA
ATOM      2  C6  UNK B   0     -14.906 -49.824 -21.800  0.00  0.00    +0.000 C 
ATOM      3  C7  UNK B   0     -15.055 -48.773 -20.662  0.00  0.00    +0.000 C 
ATOM      4  C8  UNK B   0     -16.296 -49.998 -22.461  0.00  0.00    +0.000 C 
ATOM      5  C9  UNK B   0     -16.527 -48.908 -20.342  0.00  0.00    +0.000 A 
ATOM      6  C10 UNK B   0     -17.212 -49.592 -21.351  0.00  0.00    +0.000 A 
ATOM      7  C11 UNK B   0     -13.838 -49.405 -22.803  0.00  0.00    +0.000 C 
ATOM      8  C12 UNK B   0     -14.644 -47.388 -21.105  0.00  0.00    +0.000 A 
ATOM      9  C13 UNK B   0     -14.217 -47.138 -22.418  0.00  0.00    +0.000 A 
ATOM     10  C14 UNK B   0     -17.200 -48.463 -19.214  0.00  0.00    +0.000 A 
ATOM     11  C15 UNK B   0     -18.580 -49.810 -21.272  0.00  0.00    +0.000 A 
ATOM     12  C16 UNK B   0     -14.675 -46.314 -20.201  0.00  0.00    +0.000 A 
ATOM     13  C17 UNK B   0     -18.576 -48.687 -19.120  0.00  0.00    +0.000 A 
ATOM     14  C18 UNK B   0     -19.262 -49.353 -20.144  0.00  0.00    +0.000 A 
ATOM     15  C19 UNK B   0     -13.903 -45.842 -22.835  0.00  0.00    +0.000 A 
ATOM     16  C20 UNK B   0     -14.339 -45.022 -20.613  0.00  0.00    +0.000 A 
ATOM     17  C21 UNK B   0     -13.963 -44.784 -21.932  0.00  0.00    +0.000 A 
ENDROOT
BRANCH   2  18
ATOM     18  O1  UNK B   0     -14.488 -51.076 -21.244  0.00  0.00    +0.000 OA
ATOM     19  H28 UNK B   0     -13.710 -51.383 -21.739  0.00  0.00    +0.000 HD
ENDBRANCH   2  18
BRANCH  13  20
ATOM     20  O3  UNK B   0     -19.247 -48.249 -18.016  0.00  0.00    +0.000 OA
ATOM     21  H33 UNK B   0     -19.464 -49.012 -17.454  0.00  0.00    +0.000 HD
ENDBRANCH  13  20
BRANCH  14  22
ATOM     22  O4  UNK B   0     -20.605 -49.564 -20.048  0.00  0.00    +0.000 OA
ATOM     23  H34 UNK B   0     -20.934 -49.904 -20.898  0.00  0.00    +0.000 HD
ENDBRANCH  14  22
BRANCH  17  24
ATOM     24  O5  UNK B   0     -13.647 -43.524 -22.334  0.00  0.00    +0.000 OA
ATOM     25  H35 UNK B   0     -13.043 -43.578 -23.095  0.00  0.00    +0.000 HD
ENDBRANCH  17  24
TORSDOF 4
ENDMDL
MODEL 5
REMARK VINA RESULT:    -6.933      2.278      4.948
REMARK INTER + INTRA:          -7.743
REMARK INTER:                  -7.743
REMARK INTRA:                   0.000
REMARK UNBOUND:                 0.000
REMARK  Name = BCBL.pdb
REMARK  4 active torsions:
REMARK  status: ('A' for Active; 'I' for Inactive)
REMARK    1  A    between atoms: O1_1  and  C6_6
REMARK    2  A    between atoms: O3_3  and  C17_17
REMARK    3  A    between atoms: O4_4  and  C18_18
REMARK    4  A    between atoms: O5_5  and  C21_21
REMARK                            x       y       z     vdW  Elec       q    Type
REMARK                         _______ _______ _______ _____ _____    ______ ____
ROOT
ATOM      1  O2  UNK B   0     -17.183 -49.382 -22.475  0.00  0.00    +0.000 OA
ATOM      2  C6  UNK B   0     -14.958 -48.706 -21.702  0.00  0.00    +0.000 C 
ATOM      3  C7  UNK B   0     -15.459 -48.560 -20.236  0.00  0.00    +0.000 C 
ATOM      4  C8  UNK B   0     -14.314 -50.108 -21.838  0.00  0.00    +0.000 C 
ATOM      5  C9  UNK B   0     -14.549 -49.536 -19.526  0.00  0.00    +0.000 A 
ATOM      6  C10 UNK B   0     -13.914 -50.397 -20.427  0.00  0.00    +0.000 A 
ATOM      7  C11 UNK B   0     -16.091 -48.491 -22.698  0.00  0.00    +0.000 C 
ATOM      8  C12 UNK B   0     -16.931 -48.877 -20.102  0.00  0.00    +0.000 A 
ATOM      9  C13 UNK B   0     -17.694 -49.285 -21.206  0.00  0.00    +0.000 A 
ATOM     10  C14 UNK B   0     -14.295 -49.631 -18.165  0.00  0.00    +0.000 A 
ATOM     11  C15 UNK B   0     -13.049 -51.387 -19.987  0.00  0.00    +0.000 A 
ATOM     12  C16 UNK B   0     -17.572 -48.764 -18.858  0.00  0.00    +0.000 A 
ATOM     13  C17 UNK B   0     -13.417 -50.619 -17.714  0.00  0.00    +0.000 A 
ATOM     14  C18 UNK B   0     -12.801 -51.495 -18.618  0.00  0.00    +0.000 A 
ATOM     15  C19 UNK B   0     -19.038 -49.641 -21.058  0.00  0.00    +0.000 A 
ATOM     16  C20 UNK B   0     -18.921 -49.098 -18.714  0.00  0.00    +0.000 A 
ATOM     17  C21 UNK B   0     -19.651 -49.546 -19.811  0.00  0.00    +0.000 A 
ENDROOT
BRANCH   2  18
ATOM     18  O1  UNK B   0     -13.969 -47.706 -21.972  0.00  0.00    +0.000 OA
ATOM     19  H28 UNK B   0     -13.468 -47.978 -22.759  0.00  0.00    +0.000 HD
ENDBRANCH   2  18
BRANCH  13  20
ATOM     20  O3  UNK B   0     -13.165 -50.724 -16.378  0.00  0.00    +0.000 OA
ATOM     21  H33 UNK B   0     -12.523 -51.440 -16.231  0.00  0.00    +0.000 HD
ENDBRANCH  13  20
BRANCH  14  22
ATOM     22  O4  UNK B   0     -11.948 -52.459 -18.171  0.00  0.00    +0.000 OA
ATOM     23  H34 UNK B   0     -11.545 -52.905 -18.935  0.00  0.00    +0.000 HD
ENDBRANCH  14  22
BRANCH  17  24
ATOM     24  O5  UNK B   0     -20.962 -49.881 -19.668  0.00  0.00    +0.000 OA
ATOM     25  H35 UNK B   0     -21.143 -50.676 -20.199  0.00  0.00    +0.000 HD
ENDBRANCH  17  24
TORSDOF 4
ENDMDL
MODEL 6
REMARK VINA RESULT:    -6.931      2.238      5.270
REMARK INTER + INTRA:          -7.741
REMARK INTER:                  -7.741
REMARK INTRA:                   0.000
REMARK UNBOUND:                 0.000
REMARK  Name = BCBL.pdb
REMARK  4 active torsions:
REMARK  status: ('A' for Active; 'I' for Inactive)
REMARK    1  A    between atoms: O1_1  and  C6_6
REMARK    2  A    between atoms: O3_3  and  C17_17
REMARK    3  A    between atoms: O4_4  and  C18_18
REMARK    4  A    between atoms: O5_5  and  C21_21
REMARK                            x       y       z     vdW  Elec       q    Type
REMARK                         _______ _______ _______ _____ _____    ______ ____
ROOT
ATOM      1  O2  UNK B   0     -14.989 -46.735 -19.416  0.00  0.00    +0.000 OA
ATOM      2  C6  UNK B   0     -15.739 -48.898 -20.289  0.00  0.00    +0.000 C 
ATOM      3  C7  UNK B   0     -15.283 -48.528 -21.730  0.00  0.00    +0.000 C 
ATOM      4  C8  UNK B   0     -14.606 -49.730 -19.639  0.00  0.00    +0.000 C 
ATOM      5  C9  UNK B   0     -14.299 -49.641 -22.011  0.00  0.00    +0.000 A 
ATOM      6  C10 UNK B   0     -13.926 -50.307 -20.839  0.00  0.00    +0.000 A 
ATOM      7  C11 UNK B   0     -16.080 -47.653 -19.480  0.00  0.00    +0.000 C 
ATOM      8  C12 UNK B   0     -14.684 -47.142 -21.801  0.00  0.00    +0.000 A 
ATOM      9  C13 UNK B   0     -14.553 -46.344 -20.656  0.00  0.00    +0.000 A 
ATOM     10  C14 UNK B   0     -13.788 -50.040 -23.238  0.00  0.00    +0.000 A 
ATOM     11  C15 UNK B   0     -13.013 -51.351 -20.863  0.00  0.00    +0.000 A 
ATOM     12  C16 UNK B   0     -14.249 -46.617 -23.029  0.00  0.00    +0.000 A 
ATOM     13  C17 UNK B   0     -12.877 -51.098 -23.274  0.00  0.00    +0.000 A 
ATOM     14  C18 UNK B   0     -12.488 -51.746 -22.094  0.00  0.00    +0.000 A 
ATOM     15  C19 UNK B   0     -13.937 -45.090 -20.721  0.00  0.00    +0.000 A 
ATOM     16  C20 UNK B   0     -13.653 -45.356 -23.098  0.00  0.00    +0.000 A 
ATOM     17  C21 UNK B   0     -13.488 -44.597 -21.943  0.00  0.00    +0.000 A 
ENDROOT
BRANCH   2  18
ATOM     18  O1  UNK B   0     -16.929 -49.693 -20.353  0.00  0.00    +0.000 OA
ATOM     19  H28 UNK B   0     -17.622 -49.168 -20.789  0.00  0.00    +0.000 HD
ENDBRANCH   2  18
BRANCH  13  20
ATOM     20  O3  UNK B   0     -12.365 -51.495 -24.474  0.00  0.00    +0.000 OA
ATOM     21  H33 UNK B   0     -12.320 -52.466 -24.494  0.00  0.00    +0.000 HD
ENDBRANCH  13  20
BRANCH  14  22
ATOM     22  O4  UNK B   0     -11.595 -52.775 -22.135  0.00  0.00    +0.000 OA
ATOM     23  H34 UNK B   0     -11.280 -52.884 -23.049  0.00  0.00    +0.000 HD
ENDBRANCH  14  22
BRANCH  17  24
ATOM     24  O5  UNK B   0     -12.899 -43.372 -22.010  0.00  0.00    +0.000 OA
ATOM     25  H35 UNK B   0     -12.497 -43.168 -21.148  0.00  0.00    +0.000 HD
ENDBRANCH  17  24
TORSDOF 4
ENDMDL
MODEL 7
REMARK VINA RESULT:    -6.707      2.172      5.770
REMARK INTER + INTRA:          -7.491
REMARK INTER:                  -7.491
REMARK INTRA:                   0.000
REMARK UNBOUND:                 0.000
REMARK  Name = BCBL.pdb
REMARK  4 active torsions:
REMARK  status: ('A' for Active; 'I' for Inactive)
REMARK    1  A    between atoms: O1_1  and  C6_6
REMARK    2  A    between atoms: O3_3  and  C17_17
REMARK    3  A    between atoms: O4_4  and  C18_18
REMARK    4  A    between atoms: O5_5  and  C21_21
REMARK                            x       y       z     vdW  Elec       q    Type
REMARK                         _______ _______ _______ _____ _____    ______ ____
ROOT
ATOM      1  O2  UNK B   0     -12.393 -49.734 -24.075  0.00  0.00    +0.000 OA
ATOM      2  C6  UNK B   0     -12.420 -49.892 -21.629  0.00  0.00    +0.000 C 
ATOM      3  C7  UNK B   0     -12.597 -48.353 -21.485  0.00  0.00    +0.000 C 
ATOM      4  C8  UNK B   0     -13.825 -50.536 -21.531  0.00  0.00    +0.000 C 
ATOM      5  C9  UNK B   0     -13.895 -48.289 -20.712  0.00  0.00    +0.000 A 
ATOM      6  C10 UNK B   0     -14.575 -49.510 -20.743  0.00  0.00    +0.000 A 
ATOM      7  C11 UNK B   0     -11.711 -50.248 -22.931  0.00  0.00    +0.000 C 
ATOM      8  C12 UNK B   0     -12.640 -47.655 -22.825  0.00  0.00    +0.000 A 
ATOM      9  C13 UNK B   0     -12.559 -48.374 -24.026  0.00  0.00    +0.000 A 
ATOM     10  C14 UNK B   0     -14.420 -47.211 -20.014  0.00  0.00    +0.000 A 
ATOM     11  C15 UNK B   0     -15.801 -49.668 -20.115  0.00  0.00    +0.000 A 
ATOM     12  C16 UNK B   0     -12.758 -46.257 -22.895  0.00  0.00    +0.000 A 
ATOM     13  C17 UNK B   0     -15.650 -47.363 -19.368  0.00  0.00    +0.000 A 
ATOM     14  C18 UNK B   0     -16.338 -48.583 -19.422  0.00  0.00    +0.000 A 
ATOM     15  C19 UNK B   0     -12.667 -47.725 -25.260  0.00  0.00    +0.000 A 
ATOM     16  C20 UNK B   0     -12.844 -45.606 -24.128  0.00  0.00    +0.000 A 
ATOM     17  C21 UNK B   0     -12.809 -46.341 -25.309  0.00  0.00    +0.000 A 
ENDROOT
BRANCH   2  18
ATOM     18  O1  UNK B   0     -11.602 -50.382 -20.561  0.00  0.00    +0.000 OA
ATOM     19  H28 UNK B   0     -11.126 -49.629 -20.172  0.00  0.00    +0.000 HD
ENDBRANCH   2  18
BRANCH  13  20
ATOM     20  O3  UNK B   0     -16.177 -46.308 -18.683  0.00  0.00    +0.000 OA
ATOM     21  H33 UNK B   0     -17.027 -46.062 -19.085  0.00  0.00    +0.000 HD
ENDBRANCH  13  20
BRANCH  14  22
ATOM     22  O4  UNK B   0     -17.539 -48.724 -18.794  0.00  0.00    +0.000 OA
ATOM     23  H34 UNK B   0     -17.491 -48.298 -17.921  0.00  0.00    +0.000 HD
ENDBRANCH  14  22
BRANCH  17  24
ATOM     24  O5  UNK B   0     -12.903 -45.707 -26.510  0.00  0.00    +0.000 OA
ATOM     25  H35 UNK B   0     -13.836 -45.696 -26.788  0.00  0.00    +0.000 HD
ENDBRANCH  17  24
TORSDOF 4
ENDMDL
MODEL 8
REMARK VINA RESULT:    -5.941      2.328      3.935
REMARK INTER + INTRA:          -6.636
REMARK INTER:                  -6.636
REMARK INTRA:                   0.000
REMARK UNBOUND:                 0.000
REMARK  Name = BCBL.pdb
REMARK  4 active torsions:
REMARK  status: ('A' for Active; 'I' for Inactive)
REMARK    1  A    between atoms: O1_1  and  C6_6
REMARK    2  A    between atoms: O3_3  and  C17_17
REMARK    3  A    between atoms: O4_4  and  C18_18
REMARK    4  A    between atoms: O5_5  and  C21_21
REMARK                            x       y       z     vdW  Elec       q    Type
REMARK                         _______ _______ _______ _____ _____    ______ ____
ROOT
ATOM      1  O2  UNK B   0     -20.737 -48.580 -19.980  0.00  0.00    +0.000 OA
ATOM      2  C6  UNK B   0     -18.707 -49.341 -18.838  0.00  0.00    +0.000 C 
ATOM      3  C7  UNK B   0     -18.160 -49.991 -20.142  0.00  0.00    +0.000 C 
ATOM      4  C8  UNK B   0     -18.065 -47.938 -18.710  0.00  0.00    +0.000 C 
ATOM      5  C9  UNK B   0     -16.851 -49.251 -20.300  0.00  0.00    +0.000 A 
ATOM      6  C10 UNK B   0     -16.805 -48.106 -19.498  0.00  0.00    +0.000 A 
ATOM      7  C11 UNK B   0     -20.229 -49.282 -18.846  0.00  0.00    +0.000 C 
ATOM      8  C12 UNK B   0     -19.110 -49.822 -21.306  0.00  0.00    +0.000 A 
ATOM      9  C13 UNK B   0     -20.315 -49.118 -21.169  0.00  0.00    +0.000 A 
ATOM     10  C14 UNK B   0     -15.767 -49.594 -21.096  0.00  0.00    +0.000 A 
ATOM     11  C15 UNK B   0     -15.701 -47.267 -19.504  0.00  0.00    +0.000 A 
ATOM     12  C16 UNK B   0     -18.803 -50.376 -22.560  0.00  0.00    +0.000 A 
ATOM     13  C17 UNK B   0     -14.646 -48.760 -21.100  0.00  0.00    +0.000 A 
ATOM     14  C18 UNK B   0     -14.615 -47.602 -20.313  0.00  0.00    +0.000 A 
ATOM     15  C19 UNK B   0     -21.154 -48.910 -22.268  0.00  0.00    +0.000 A 
ATOM     16  C20 UNK B   0     -19.652 -50.187 -23.653  0.00  0.00    +0.000 A 
ATOM     17  C21 UNK B   0     -20.822 -49.446 -23.509  0.00  0.00    +0.000 A 
ENDROOT
BRANCH   2  18
ATOM     18  O1  UNK B   0     -18.326 -50.137 -17.710  0.00  0.00    +0.000 OA
ATOM     19  H28 UNK B   0     -18.733 -51.015 -17.806  0.00  0.00    +0.000 HD
ENDBRANCH   2  18
BRANCH  13  20
ATOM     20  O3  UNK B   0     -13.578 -49.087 -21.883  0.00  0.00    +0.000 OA
ATOM     21  H33 UNK B   0     -12.858 -49.412 -21.317  0.00  0.00    +0.000 HD
ENDBRANCH  13  20
BRANCH  14  22
ATOM     22  O4  UNK B   0     -13.520 -46.791 -20.325  0.00  0.00    +0.000 OA
ATOM     23  H34 UNK B   0     -13.783 -45.909 -20.639  0.00  0.00    +0.000 HD
ENDBRANCH  14  22
BRANCH  17  24
ATOM     24  O5  UNK B   0     -21.643 -49.254 -24.577  0.00  0.00    +0.000 OA
ATOM     25  H35 UNK B   0     -22.435 -48.770 -24.283  0.00  0.00    +0.000 HD
ENDBRANCH  17  24
TORSDOF 4
ENDMDL
MODEL 9
REMARK VINA RESULT:    -5.714      3.336      4.748
REMARK INTER + INTRA:          -6.382
REMARK INTER:                  -6.382
REMARK INTRA:                   0.000
REMARK UNBOUND:                 0.000
REMARK  Name = BCBL.pdb
REMARK  4 active torsions:
REMARK  status: ('A' for Active; 'I' for Inactive)
REMARK    1  A    between atoms: O1_1  and  C6_6
REMARK    2  A    between atoms: O3_3  and  C17_17
REMARK    3  A    between atoms: O4_4  and  C18_18
REMARK    4  A    between atoms: O5_5  and  C21_21
REMARK                            x       y       z     vdW  Elec       q    Type
REMARK                         _______ _______ _______ _____ _____    ______ ____
ROOT
ATOM      1  O2  UNK B   0     -13.952 -47.394 -21.480  0.00  0.00    +0.000 OA
ATOM      2  C6  UNK B   0     -12.636 -45.616 -22.535  0.00  0.00    +0.000 C 
ATOM      3  C7  UNK B   0     -12.094 -46.595 -23.616  0.00  0.00    +0.000 C 
ATOM      4  C8  UNK B   0     -13.847 -44.868 -23.146  0.00  0.00    +0.000 C 
ATOM      5  C9  UNK B   0     -12.571 -45.914 -24.879  0.00  0.00    +0.000 A 
ATOM      6  C10 UNK B   0     -13.550 -44.953 -24.609  0.00  0.00    +0.000 A 
ATOM      7  C11 UNK B   0     -13.000 -46.355 -21.253  0.00  0.00    +0.000 C 
ATOM      8  C12 UNK B   0     -12.623 -47.999 -23.433  0.00  0.00    +0.000 A 
ATOM      9  C13 UNK B   0     -13.525 -48.311 -22.405  0.00  0.00    +0.000 A 
ATOM     10  C14 UNK B   0     -12.141 -46.132 -26.181  0.00  0.00    +0.000 A 
ATOM     11  C15 UNK B   0     -14.142 -44.222 -25.628  0.00  0.00    +0.000 A 
ATOM     12  C16 UNK B   0     -12.214 -49.031 -24.293  0.00  0.00    +0.000 A 
ATOM     13  C17 UNK B   0     -12.724 -45.393 -27.213  0.00  0.00    +0.000 A 
ATOM     14  C18 UNK B   0     -13.721 -44.447 -26.939  0.00  0.00    +0.000 A 
ATOM     15  C19 UNK B   0     -14.059 -49.597 -22.286  0.00  0.00    +0.000 A 
ATOM     16  C20 UNK B   0     -12.731 -50.321 -24.160  0.00  0.00    +0.000 A 
ATOM     17  C21 UNK B   0     -13.661 -50.602 -23.163  0.00  0.00    +0.000 A 
ENDROOT
BRANCH   2  18
ATOM     18  O1  UNK B   0     -11.620 -44.666 -22.195  0.00  0.00    +0.000 OA
ATOM     19  H28 UNK B   0     -12.009 -44.003 -21.600  0.00  0.00    +0.000 HD
ENDBRANCH   2  18
BRANCH  13  20
ATOM     20  O3  UNK B   0     -12.312 -45.603 -28.496  0.00  0.00    +0.000 OA
ATOM     21  H33 UNK B   0     -12.124 -46.549 -28.617  0.00  0.00    +0.000 HD
ENDBRANCH  13  20
BRANCH  14  22
ATOM     22  O4  UNK B   0     -14.289 -43.732 -27.951  0.00  0.00    +0.000 OA
ATOM     23  H34 UNK B   0     -13.603 -43.507 -28.603  0.00  0.00    +0.000 HD
ENDBRANCH  14  22
BRANCH  17  24
ATOM     24  O5  UNK B   0     -14.172 -51.857 -23.041  0.00  0.00    +0.000 OA
ATOM     25  H35 UNK B   0     -14.341 -52.216 -23.929  0.00  0.00    +0.000 HD
ENDBRANCH  17  24
TORSDOF 4
ENDMDL
