MODEL 1
REMARK VINA RESULT:    -8.662      0.000      0.000
REMARK INTER + INTRA:          -9.674
REMARK INTER:                  -9.674
REMARK INTRA:                   0.000
REMARK UNBOUND:                 0.000
REMARK  Name = Brazilin.pdb
REMARK  4 active torsions:
REMARK  status: ('A' for Active; 'I' for Inactive)
REMARK    1  A    between atoms: C3_3  and  O3_6
REMARK    2  A    between atoms: C4_4  and  O4_7
REMARK    3  A    between atoms: C10_10  and  O1_16
REMARK    4  A    between atoms: C19_19  and  O1_21
REMARK                            x       y       z     vdW  Elec       q    Type
REMARK                         _______ _______ _______ _____ _____    ______ ____
ROOT
ATOM      1 3C45 GLC     4       4.617  41.366  21.051  0.00  0.00    +0.000 A 
ATOM      2  C2  GLC     4       3.544  40.367  21.096  0.00  0.00    +0.000 A 
ATOM      3  C3  GLC     4       2.284  40.814  21.116  0.00  0.00    +0.000 A 
ATOM      4  C4  GLC     4       2.004  42.255  21.077  0.00  0.00    +0.000 A 
ATOM      5  C5  GLC     4       2.993  43.157  21.020  0.00  0.00    +0.000 A 
ATOM      6 3C45 GLC     4       4.358  42.669  21.019  0.00  0.00    +0.000 A 
ATOM      7  C9  GLC     4       5.674  43.441  21.050  0.00  0.00    +0.000 C 
ATOM      8  C10 GLC     4       6.539  42.431  20.364  0.00  0.00    +0.000 C 
ATOM      9  C11 GLC     4       6.111  41.138  21.103  0.00  0.00    +0.000 C 
ATOM     10  C12 GLC     4       8.012  42.826  20.394  0.00  0.00    +0.000 C 
ATOM     11  O13 GLC     4       8.115  44.088  19.729  0.00  0.00    +0.000 OA
ATOM     12  C14 GLC     4       7.152  45.045  19.769  0.00  0.00    +0.000 A 
ATOM     13  C15 GLC     4       5.858  44.794  20.429  0.00  0.00    +0.000 A 
ATOM     14  C17 GLC     4       4.944  45.760  20.464  0.00  0.00    +0.000 A 
ATOM     15  C18 GLC     4       5.234  47.042  19.835  0.00  0.00    +0.000 A 
ATOM     16  C19 GLC     4       6.406  47.250  19.237  0.00  0.00    +0.000 A 
ATOM     17  C20 GLC     4       7.402  46.218  19.203  0.00  0.00    +0.000 A 
ENDROOT
BRANCH   3  18
ATOM     18  O3  GLC     4       1.198  39.955  21.185  0.00  0.00    +0.000 OA
ATOM     19  H3  GLC     4       1.319  39.135  20.622  0.00  0.00    +0.000 HD
ENDBRANCH   3  18
BRANCH   4  20
ATOM     20  O4  GLC     4       0.689  42.651  21.114  0.00  0.00    +0.000 OA
ATOM     21  H4  GLC     4       0.433  43.072  20.221  0.00  0.00    +0.000 HD
ENDBRANCH   4  20
BRANCH   8  22
ATOM     22  O1  GLC     4       6.161  42.349  18.976  0.00  0.00    +0.000 OA
ATOM     23  H10 GLC     4       6.952  42.299  18.398  0.00  0.00    +0.000 HD
ENDBRANCH   8  22
BRANCH  16  24
ATOM     24  O1  GLC     4       6.671  48.444  18.655  0.00  0.00    +0.000 OA
ATOM     25  H14 GLC     4       7.527  48.728  18.959  0.00  0.00    +0.000 HD
ENDBRANCH  16  24
TORSDOF 4
ENDMDL
MODEL 2
REMARK VINA RESULT:    -8.172      2.599      5.934
REMARK INTER + INTRA:          -9.127
REMARK INTER:                  -9.127
REMARK INTRA:                   0.000
REMARK UNBOUND:                 0.000
REMARK  Name = Brazilin.pdb
REMARK  4 active torsions:
REMARK  status: ('A' for Active; 'I' for Inactive)
REMARK    1  A    between atoms: C3_3  and  O3_6
REMARK    2  A    between atoms: C4_4  and  O4_7
REMARK    3  A    between atoms: C10_10  and  O1_16
REMARK    4  A    between atoms: C19_19  and  O1_21
REMARK                            x       y       z     vdW  Elec       q    Type
REMARK                         _______ _______ _______ _____ _____    ______ ____
ROOT
ATOM      1 3C45 GLC     4       5.263  44.330  18.959  0.00  0.00    +0.000 A 
ATOM      2  C2  GLC     4       6.271  44.714  17.964  0.00  0.00    +0.000 A 
ATOM      3  C3  GLC     4       7.270  45.503  18.371  0.00  0.00    +0.000 A 
ATOM      4  C4  GLC     4       7.349  45.945  19.770  0.00  0.00    +0.000 A 
ATOM      5  C5  GLC     4       6.431  45.573  20.672  0.00  0.00    +0.000 A 
ATOM      6 3C45 GLC     4       5.337  44.735  20.222  0.00  0.00    +0.000 A 
ATOM      7  C9  GLC     4       4.113  44.232  20.981  0.00  0.00    +0.000 C 
ATOM      8  C10 GLC     4       3.863  42.984  20.195  0.00  0.00    +0.000 C 
ATOM      9  C11 GLC     4       4.000  43.524  18.749  0.00  0.00    +0.000 C 
ATOM     10  C12 GLC     4       2.553  42.311  20.592  0.00  0.00    +0.000 C 
ATOM     11  O13 GLC     4       2.654  41.998  21.984  0.00  0.00    +0.000 OA
ATOM     12  C14 GLC     4       3.330  42.759  22.884  0.00  0.00    +0.000 A 
ATOM     13  C15 GLC     4       4.113  43.932  22.451  0.00  0.00    +0.000 A 
ATOM     14  C17 GLC     4       4.748  44.665  23.361  0.00  0.00    +0.000 A 
ATOM     15  C18 GLC     4       4.671  44.285  24.766  0.00  0.00    +0.000 A 
ATOM     16  C19 GLC     4       3.965  43.219  25.139  0.00  0.00    +0.000 A 
ATOM     17  C20 GLC     4       3.268  42.428  24.166  0.00  0.00    +0.000 A 
ENDROOT
BRANCH   3  18
ATOM     18  O3  GLC     4       8.259  45.946  17.506  0.00  0.00    +0.000 OA
ATOM     19  H3  GLC     4       8.959  45.250  17.333  0.00  0.00    +0.000 HD
ENDBRANCH   3  18
BRANCH   4  20
ATOM     20  O4  GLC     4       8.393  46.766  20.122  0.00  0.00    +0.000 OA
ATOM     21  H4  GLC     4       8.028  47.643  20.491  0.00  0.00    +0.000 HD
ENDBRANCH   4  20
BRANCH   8  22
ATOM     22  O1  GLC     4       4.912  42.035  20.465  0.00  0.00    +0.000 OA
ATOM     23  H10 GLC     4       5.710  42.229  19.928  0.00  0.00    +0.000 HD
ENDBRANCH   8  22
BRANCH  16  24
ATOM     24  O1  GLC     4       3.895  42.872  26.446  0.00  0.00    +0.000 OA
ATOM     25  H14 GLC     4       3.011  42.563  26.614  0.00  0.00    +0.000 HD
ENDBRANCH  16  24
TORSDOF 4
ENDMDL
MODEL 3
REMARK VINA RESULT:    -8.108      3.328      5.865
REMARK INTER + INTRA:          -9.055
REMARK INTER:                  -9.055
REMARK INTRA:                   0.000
REMARK UNBOUND:                 0.000
REMARK  Name = Brazilin.pdb
REMARK  4 active torsions:
REMARK  status: ('A' for Active; 'I' for Inactive)
REMARK    1  A    between atoms: C3_3  and  O3_6
REMARK    2  A    between atoms: C4_4  and  O4_7
REMARK    3  A    between atoms: C10_10  and  O1_16
REMARK    4  A    between atoms: C19_19  and  O1_21
REMARK                            x       y       z     vdW  Elec       q    Type
REMARK                         _______ _______ _______ _____ _____    ______ ____
ROOT
ATOM      1 3C45 GLC     4       4.216  43.491  20.203  0.00  0.00    +0.000 A 
ATOM      2  C2  GLC     4       4.757  44.172  19.021  0.00  0.00    +0.000 A 
ATOM      3  C3  GLC     4       5.109  45.454  19.155  0.00  0.00    +0.000 A 
ATOM      4  C4  GLC     4       4.967  46.135  20.450  0.00  0.00    +0.000 A 
ATOM      5  C5  GLC     4       4.487  45.497  21.524  0.00  0.00    +0.000 A 
ATOM      6 3C45 GLC     4       4.086  44.112  21.370  0.00  0.00    +0.000 A 
ATOM      7  C9  GLC     4       3.432  43.164  22.371  0.00  0.00    +0.000 C 
ATOM      8  C10 GLC     4       3.940  41.871  21.815  0.00  0.00    +0.000 C 
ATOM      9  C11 GLC     4       3.671  42.084  20.304  0.00  0.00    +0.000 C 
ATOM     10  C12 GLC     4       3.302  40.666  22.498  0.00  0.00    +0.000 C 
ATOM     11  O13 GLC     4       3.627  40.759  23.888  0.00  0.00    +0.000 OA
ATOM     12  C14 GLC     4       3.755  41.935  24.558  0.00  0.00    +0.000 A 
ATOM     13  C15 GLC     4       3.670  43.226  23.850  0.00  0.00    +0.000 A 
ATOM     14  C17 GLC     4       3.782  44.357  24.541  0.00  0.00    +0.000 A 
ATOM     15  C18 GLC     4       4.003  44.298  25.980  0.00  0.00    +0.000 A 
ATOM     16  C19 GLC     4       4.084  43.124  26.602  0.00  0.00    +0.000 A 
ATOM     17  C20 GLC     4       3.953  41.898  25.868  0.00  0.00    +0.000 A 
ENDROOT
BRANCH   3  18
ATOM     18  O3  GLC     4       5.605  46.198  18.096  0.00  0.00    +0.000 OA
ATOM     19  H3  GLC     4       6.484  45.851  17.761  0.00  0.00    +0.000 HD
ENDBRANCH   3  18
BRANCH   4  20
ATOM     20  O4  GLC     4       5.333  47.458  20.518  0.00  0.00    +0.000 OA
ATOM     21  H4  GLC     4       5.877  47.705  19.692  0.00  0.00    +0.000 HD
ENDBRANCH   4  20
BRANCH   8  22
ATOM     22  O1  GLC     4       5.357  41.778  22.051  0.00  0.00    +0.000 OA
ATOM     23  H10 GLC     4       5.841  41.574  21.223  0.00  0.00    +0.000 HD
ENDBRANCH   8  22
BRANCH  16  24
ATOM     24  O1  GLC     4       4.287  43.074  27.940  0.00  0.00    +0.000 OA
ATOM     25  H14 GLC     4       3.843  42.301  28.270  0.00  0.00    +0.000 HD
ENDBRANCH  16  24
TORSDOF 4
ENDMDL
MODEL 4
REMARK VINA RESULT:    -7.739      2.366      2.994
REMARK INTER + INTRA:          -8.644
REMARK INTER:                  -8.644
REMARK INTRA:                   0.000
REMARK UNBOUND:                 0.000
REMARK  Name = Brazilin.pdb
REMARK  4 active torsions:
REMARK  status: ('A' for Active; 'I' for Inactive)
REMARK    1  A    between atoms: C3_3  and  O3_6
REMARK    2  A    between atoms: C4_4  and  O4_7
REMARK    3  A    between atoms: C10_10  and  O1_16
REMARK    4  A    between atoms: C19_19  and  O1_21
REMARK                            x       y       z     vdW  Elec       q    Type
REMARK                         _______ _______ _______ _____ _____    ______ ____
ROOT
ATOM      1 3C45 GLC     4       3.201  42.256  23.750  0.00  0.00    +0.000 A 
ATOM      2  C2  GLC     4       2.547  41.110  24.391  0.00  0.00    +0.000 A 
ATOM      3  C3  GLC     4       1.841  40.286  23.610  0.00  0.00    +0.000 A 
ATOM      4  C4  GLC     4       1.749  40.526  22.164  0.00  0.00    +0.000 A 
ATOM      5  C5  GLC     4       2.365  41.567  21.589  0.00  0.00    +0.000 A 
ATOM      6 3C45 GLC     4       3.112  42.470  22.442  0.00  0.00    +0.000 A 
ATOM      7  C9  GLC     4       3.834  43.770  22.097  0.00  0.00    +0.000 C 
ATOM      8  C10 GLC     4       4.863  43.746  23.184  0.00  0.00    +0.000 C 
ATOM      9  C11 GLC     4       3.982  43.374  24.404  0.00  0.00    +0.000 C 
ATOM     10  C12 GLC     4       5.663  45.042  23.241  0.00  0.00    +0.000 C 
ATOM     11  O13 GLC     4       6.301  45.191  21.969  0.00  0.00    +0.000 OA
ATOM     12  C14 GLC     4       5.755  44.778  20.796  0.00  0.00    +0.000 A 
ATOM     13  C15 GLC     4       4.482  44.033  20.771  0.00  0.00    +0.000 A 
ATOM     14  C17 GLC     4       3.967  43.660  19.603  0.00  0.00    +0.000 A 
ATOM     15  C18 GLC     4       4.679  43.979  18.372  0.00  0.00    +0.000 A 
ATOM     16  C19 GLC     4       5.831  44.646  18.413  0.00  0.00    +0.000 A 
ATOM     17  C20 GLC     4       6.389  45.063  19.667  0.00  0.00    +0.000 A 
ENDROOT
BRANCH   3  18
ATOM     18  O3  GLC     4       1.161  39.189  24.119  0.00  0.00    +0.000 OA
ATOM     19  H3  GLC     4       0.175  39.234  23.945  0.00  0.00    +0.000 HD
ENDBRANCH   3  18
BRANCH   4  20
ATOM     20  O4  GLC     4       0.997  39.650  21.418  0.00  0.00    +0.000 OA
ATOM     21  H4  GLC     4       1.479  39.446  20.543  0.00  0.00    +0.000 HD
ENDBRANCH   4  20
BRANCH   8  22
ATOM     22  O1  GLC     4       5.805  42.689  22.921  0.00  0.00    +0.000 OA
ATOM     23  H10 GLC     4       5.368  41.812  22.947  0.00  0.00    +0.000 HD
ENDBRANCH   8  22
BRANCH  16  24
ATOM     24  O1  GLC     4       6.488  44.942  17.267  0.00  0.00    +0.000 OA
ATOM     25  H14 GLC     4       7.405  44.728  17.398  0.00  0.00    +0.000 HD
ENDBRANCH  16  24
TORSDOF 4
ENDMDL
MODEL 5
REMARK VINA RESULT:    -7.720      1.573      5.768
REMARK INTER + INTRA:          -8.623
REMARK INTER:                  -8.623
REMARK INTRA:                   0.000
REMARK UNBOUND:                 0.000
REMARK  Name = Brazilin.pdb
REMARK  4 active torsions:
REMARK  status: ('A' for Active; 'I' for Inactive)
REMARK    1  A    between atoms: C3_3  and  O3_6
REMARK    2  A    between atoms: C4_4  and  O4_7
REMARK    3  A    between atoms: C10_10  and  O1_16
REMARK    4  A    between atoms: C19_19  and  O1_21
REMARK                            x       y       z     vdW  Elec       q    Type
REMARK                         _______ _______ _______ _____ _____    ______ ____
ROOT
ATOM      1 3C45 GLC     4       6.508  44.414  18.773  0.00  0.00    +0.000 A 
ATOM      2  C2  GLC     4       7.231  45.669  18.539  0.00  0.00    +0.000 A 
ATOM      3  C3  GLC     4       6.724  46.782  19.077  0.00  0.00    +0.000 A 
ATOM      4  C4  GLC     4       5.498  46.729  19.885  0.00  0.00    +0.000 A 
ATOM      5  C5  GLC     4       4.857  45.573  20.105  0.00  0.00    +0.000 A 
ATOM      6 3C45 GLC     4       5.398  44.371  19.502  0.00  0.00    +0.000 A 
ATOM      7  C9  GLC     4       4.851  42.946  19.498  0.00  0.00    +0.000 C 
ATOM      8  C10 GLC     4       6.147  42.213  19.346  0.00  0.00    +0.000 C 
ATOM      9  C11 GLC     4       6.814  43.041  18.217  0.00  0.00    +0.000 C 
ATOM     10  C12 GLC     4       5.936  40.720  19.117  0.00  0.00    +0.000 C 
ATOM     11  O13 GLC     4       5.225  40.224  20.255  0.00  0.00    +0.000 OA
ATOM     12  C14 GLC     4       4.304  40.946  20.946  0.00  0.00    +0.000 A 
ATOM     13  C15 GLC     4       4.050  42.362  20.622  0.00  0.00    +0.000 A 
ATOM     14  C17 GLC     4       3.128  43.033  21.307  0.00  0.00    +0.000 A 
ATOM     15  C18 GLC     4       2.400  42.360  22.376  0.00  0.00    +0.000 A 
ATOM     16  C19 GLC     4       2.647  41.082  22.660  0.00  0.00    +0.000 A 
ATOM     17  C20 GLC     4       3.632  40.347  21.919  0.00  0.00    +0.000 A 
ENDROOT
BRANCH   3  18
ATOM     18  O3  GLC     4       7.312  48.025  18.894  0.00  0.00    +0.000 OA
ATOM     19  H3  GLC     4       7.883  48.062  18.071  0.00  0.00    +0.000 HD
ENDBRANCH   3  18
BRANCH   4  20
ATOM     20  O4  GLC     4       5.020  47.910  20.399  0.00  0.00    +0.000 OA
ATOM     21  H4  GLC     4       4.001  47.880  20.434  0.00  0.00    +0.000 HD
ENDBRANCH   4  20
BRANCH   8  22
ATOM     22  O1  GLC     4       6.909  42.341  20.562  0.00  0.00    +0.000 OA
ATOM     23  H10 GLC     4       6.732  41.592  21.169  0.00  0.00    +0.000 HD
ENDBRANCH   8  22
BRANCH  16  24
ATOM     24  O1  GLC     4       1.967  40.461  23.652  0.00  0.00    +0.000 OA
ATOM     25  H14 GLC     4       1.993  39.527  23.477  0.00  0.00    +0.000 HD
ENDBRANCH  16  24
TORSDOF 4
ENDMDL
MODEL 6
REMARK VINA RESULT:    -7.457      1.844      3.260
REMARK INTER + INTRA:          -8.329
REMARK INTER:                  -8.329
REMARK INTRA:                   0.000
REMARK UNBOUND:                 0.000
REMARK  Name = Brazilin.pdb
REMARK  4 active torsions:
REMARK  status: ('A' for Active; 'I' for Inactive)
REMARK    1  A    between atoms: C3_3  and  O3_6
REMARK    2  A    between atoms: C4_4  and  O4_7
REMARK    3  A    between atoms: C10_10  and  O1_16
REMARK    4  A    between atoms: C19_19  and  O1_21
REMARK                            x       y       z     vdW  Elec       q    Type
REMARK                         _______ _______ _______ _____ _____    ______ ____
ROOT
ATOM      1 3C45 GLC     4       3.490  43.738  21.495  0.00  0.00    +0.000 A 
ATOM      2  C2  GLC     4       2.706  42.865  22.375  0.00  0.00    +0.000 A 
ATOM      3  C3  GLC     4       2.801  41.547  22.180  0.00  0.00    +0.000 A 
ATOM      4  C4  GLC     4       3.677  41.009  21.130  0.00  0.00    +0.000 A 
ATOM      5  C5  GLC     4       4.400  41.817  20.344  0.00  0.00    +0.000 A 
ATOM      6 3C45 GLC     4       4.279  43.248  20.545  0.00  0.00    +0.000 A 
ATOM      7  C9  GLC     4       4.897  44.403  19.762  0.00  0.00    +0.000 C 
ATOM      8  C10 GLC     4       4.926  45.421  20.858  0.00  0.00    +0.000 C 
ATOM      9  C11 GLC     4       3.503  45.250  21.446  0.00  0.00    +0.000 C 
ATOM     10  C12 GLC     4       5.334  46.799  20.346  0.00  0.00    +0.000 C 
ATOM     11  O13 GLC     4       6.638  46.659  19.776  0.00  0.00    +0.000 OA
ATOM     12  C14 GLC     4       7.069  45.539  19.138  0.00  0.00    +0.000 A 
ATOM     13  C15 GLC     4       6.233  44.326  19.085  0.00  0.00    +0.000 A 
ATOM     14  C17 GLC     4       6.678  43.253  18.436  0.00  0.00    +0.000 A 
ATOM     15  C18 GLC     4       7.991  43.293  17.805  0.00  0.00    +0.000 A 
ATOM     16  C19 GLC     4       8.736  44.395  17.868  0.00  0.00    +0.000 A 
ATOM     17  C20 GLC     4       8.260  45.561  18.556  0.00  0.00    +0.000 A 
ENDROOT
BRANCH   3  18
ATOM     18  O3  GLC     4       2.081  40.635  22.937  0.00  0.00    +0.000 OA
ATOM     19  H3  GLC     4       1.090  40.766  22.859  0.00  0.00    +0.000 HD
ENDBRANCH   3  18
BRANCH   4  20
ATOM     20  O4  GLC     4       3.720  39.645  20.971  0.00  0.00    +0.000 OA
ATOM     21  H4  GLC     4       2.864  39.231  21.341  0.00  0.00    +0.000 HD
ENDBRANCH   4  20
BRANCH   8  22
ATOM     22  O1  GLC     4       5.910  45.037  21.836  0.00  0.00    +0.000 OA
ATOM     23  H10 GLC     4       6.133  44.085  21.757  0.00  0.00    +0.000 HD
ENDBRANCH   8  22
BRANCH  16  24
ATOM     24  O1  GLC     4       9.955  44.429  17.278  0.00  0.00    +0.000 OA
ATOM     25  H14 GLC     4       9.877  44.952  16.487  0.00  0.00    +0.000 HD
ENDBRANCH  16  24
TORSDOF 4
ENDMDL
MODEL 7
REMARK VINA RESULT:    -7.323      2.918      6.876
REMARK INTER + INTRA:          -8.179
REMARK INTER:                  -8.179
REMARK INTRA:                   0.000
REMARK UNBOUND:                 0.000
REMARK  Name = Brazilin.pdb
REMARK  4 active torsions:
REMARK  status: ('A' for Active; 'I' for Inactive)
REMARK    1  A    between atoms: C3_3  and  O3_6
REMARK    2  A    between atoms: C4_4  and  O4_7
REMARK    3  A    between atoms: C10_10  and  O1_16
REMARK    4  A    between atoms: C19_19  and  O1_21
REMARK                            x       y       z     vdW  Elec       q    Type
REMARK                         _______ _______ _______ _____ _____    ______ ____
ROOT
ATOM      1 3C45 GLC     4       4.048  43.595  20.981  0.00  0.00    +0.000 A 
ATOM      2  C2  GLC     4       5.096  44.489  20.476  0.00  0.00    +0.000 A 
ATOM      3  C3  GLC     4       5.845  45.132  21.376  0.00  0.00    +0.000 A 
ATOM      4  C4  GLC     4       5.624  44.926  22.814  0.00  0.00    +0.000 A 
ATOM      5  C5  GLC     4       4.674  44.094  23.262  0.00  0.00    +0.000 A 
ATOM      6 3C45 GLC     4       3.850  43.414  22.282  0.00  0.00    +0.000 A 
ATOM      7  C9  GLC     4       2.652  42.490  22.482  0.00  0.00    +0.000 C 
ATOM      8  C10 GLC     4       2.777  41.690  21.224  0.00  0.00    +0.000 C 
ATOM      9  C11 GLC     4       3.019  42.819  20.190  0.00  0.00    +0.000 C 
ATOM     10  C12 GLC     4       1.584  40.764  21.015  0.00  0.00    +0.000 C 
ATOM     11  O13 GLC     4       1.537  39.889  22.146  0.00  0.00    +0.000 OA
ATOM     12  C14 GLC     4       1.904  40.255  23.402  0.00  0.00    +0.000 A 
ATOM     13  C15 GLC     4       2.492  41.582  23.665  0.00  0.00    +0.000 A 
ATOM     14  C17 GLC     4       2.824  41.914  24.909  0.00  0.00    +0.000 A 
ATOM     15  C18 GLC     4       2.615  40.954  25.986  0.00  0.00    +0.000 A 
ATOM     16  C19 GLC     4       2.089  39.758  25.730  0.00  0.00    +0.000 A 
ATOM     17  C20 GLC     4       1.718  39.394  24.392  0.00  0.00    +0.000 A 
ENDROOT
BRANCH   3  18
ATOM     18  O3  GLC     4       6.843  46.021  21.007  0.00  0.00    +0.000 OA
ATOM     19  H3  GLC     4       7.004  46.029  20.017  0.00  0.00    +0.000 HD
ENDBRANCH   3  18
BRANCH   4  20
ATOM     20  O4  GLC     4       6.418  45.628  23.689  0.00  0.00    +0.000 OA
ATOM     21  H4  GLC     4       7.362  45.242  23.678  0.00  0.00    +0.000 HD
ENDBRANCH   4  20
BRANCH   8  22
ATOM     22  O1  GLC     4       3.943  40.849  21.312  0.00  0.00    +0.000 OA
ATOM     23  H10 GLC     4       4.685  41.218  20.787  0.00  0.00    +0.000 HD
ENDBRANCH   8  22
BRANCH  16  24
ATOM     24  O1  GLC     4       1.895  38.870  26.734  0.00  0.00    +0.000 OA
ATOM     25  H14 GLC     4       1.339  39.287  27.382  0.00  0.00    +0.000 HD
ENDBRANCH  16  24
TORSDOF 4
ENDMDL
MODEL 8
REMARK VINA RESULT:    -7.311      2.145      6.185
REMARK INTER + INTRA:          -8.166
REMARK INTER:                  -8.166
REMARK INTRA:                   0.000
REMARK UNBOUND:                 0.000
REMARK  Name = Brazilin.pdb
REMARK  4 active torsions:
REMARK  status: ('A' for Active; 'I' for Inactive)
REMARK    1  A    between atoms: C3_3  and  O3_6
REMARK    2  A    between atoms: C4_4  and  O4_7
REMARK    3  A    between atoms: C10_10  and  O1_16
REMARK    4  A    between atoms: C19_19  and  O1_21
REMARK                            x       y       z     vdW  Elec       q    Type
REMARK                         _______ _______ _______ _____ _____    ______ ____
ROOT
ATOM      1 3C45 GLC     4       6.327  45.020  21.346  0.00  0.00    +0.000 A 
ATOM      2  C2  GLC     4       6.916  46.033  20.463  0.00  0.00    +0.000 A 
ATOM      3  C3  GLC     4       6.814  45.837  19.145  0.00  0.00    +0.000 A 
ATOM      4  C4  GLC     4       6.119  44.655  18.618  0.00  0.00    +0.000 A 
ATOM      5  C5  GLC     4       5.571  43.746  19.435  0.00  0.00    +0.000 A 
ATOM      6 3C45 GLC     4       5.702  43.951  20.864  0.00  0.00    +0.000 A 
ATOM      7  C9  GLC     4       5.269  43.059  22.025  0.00  0.00    +0.000 C 
ATOM      8  C10 GLC     4       5.080  44.122  23.061  0.00  0.00    +0.000 C 
ATOM      9  C11 GLC     4       6.372  44.954  22.856  0.00  0.00    +0.000 C 
ATOM     10  C12 GLC     4       4.813  43.533  24.442  0.00  0.00    +0.000 C 
ATOM     11  O13 GLC     4       3.626  42.743  24.332  0.00  0.00    +0.000 OA
ATOM     12  C14 GLC     4       3.278  42.051  23.216  0.00  0.00    +0.000 A 
ATOM     13  C15 GLC     4       4.071  42.158  21.977  0.00  0.00    +0.000 A 
ATOM     14  C17 GLC     4       3.712  41.452  20.908  0.00  0.00    +0.000 A 
ATOM     15  C18 GLC     4       2.533  40.599  20.978  0.00  0.00    +0.000 A 
ATOM     16  C19 GLC     4       1.824  40.518  22.103  0.00  0.00    +0.000 A 
ATOM     17  C20 GLC     4       2.209  41.268  23.264  0.00  0.00    +0.000 A 
ENDROOT
BRANCH   3  18
ATOM     18  O3  GLC     4       7.360  46.719  18.224  0.00  0.00    +0.000 OA
ATOM     19  H3  GLC     4       7.157  46.460  17.277  0.00  0.00    +0.000 HD
ENDBRANCH   3  18
BRANCH   4  20
ATOM     20  O4  GLC     4       6.061  44.505  17.253  0.00  0.00    +0.000 OA
ATOM     21  H4  GLC     4       6.977  44.700  16.849  0.00  0.00    +0.000 HD
ENDBRANCH   4  20
BRANCH   8  22
ATOM     22  O1  GLC     4       3.928  44.916  22.721  0.00  0.00    +0.000 OA
ATOM     23  H10 GLC     4       4.147  45.580  22.033  0.00  0.00    +0.000 HD
ENDBRANCH   8  22
BRANCH  16  24
ATOM     24  O1  GLC     4       0.730  39.723  22.163  0.00  0.00    +0.000 OA
ATOM     25  H14 GLC     4       0.695  39.348  23.036  0.00  0.00    +0.000 HD
ENDBRANCH  16  24
TORSDOF 4
ENDMDL
MODEL 9
REMARK VINA RESULT:    -7.232      1.727      6.176
REMARK INTER + INTRA:          -8.078
REMARK INTER:                  -8.078
REMARK INTRA:                   0.000
REMARK UNBOUND:                 0.000
REMARK  Name = Brazilin.pdb
REMARK  4 active torsions:
REMARK  status: ('A' for Active; 'I' for Inactive)
REMARK    1  A    between atoms: C3_3  and  O3_6
REMARK    2  A    between atoms: C4_4  and  O4_7
REMARK    3  A    between atoms: C10_10  and  O1_16
REMARK    4  A    between atoms: C19_19  and  O1_21
REMARK                            x       y       z     vdW  Elec       q    Type
REMARK                         _______ _______ _______ _____ _____    ______ ____
ROOT
ATOM      1 3C45 GLC     4       7.357  44.398  20.141  0.00  0.00    +0.000 A 
ATOM      2  C2  GLC     4       8.609  44.534  19.388  0.00  0.00    +0.000 A 
ATOM      3  C3  GLC     4       9.221  43.411  19.000  0.00  0.00    +0.000 A 
ATOM      4  C4  GLC     4       8.639  42.099  19.310  0.00  0.00    +0.000 A 
ATOM      5  C5  GLC     4       7.487  41.989  19.985  0.00  0.00    +0.000 A 
ATOM      6 3C45 GLC     4       6.836  43.209  20.423  0.00  0.00    +0.000 A 
ATOM      7  C9  GLC     4       5.583  43.399  21.272  0.00  0.00    +0.000 C 
ATOM      8  C10 GLC     4       5.162  44.735  20.746  0.00  0.00    +0.000 C 
ATOM      9  C11 GLC     4       6.516  45.490  20.763  0.00  0.00    +0.000 C 
ATOM     10  C12 GLC     4       4.000  45.322  21.541  0.00  0.00    +0.000 C 
ATOM     11  O13 GLC     4       2.917  44.393  21.436  0.00  0.00    +0.000 OA
ATOM     12  C14 GLC     4       3.079  43.046  21.358  0.00  0.00    +0.000 A 
ATOM     13  C15 GLC     4       4.424  42.448  21.267  0.00  0.00    +0.000 A 
ATOM     14  C17 GLC     4       4.547  41.124  21.210  0.00  0.00    +0.000 A 
ATOM     15  C18 GLC     4       3.350  40.293  21.222  0.00  0.00    +0.000 A 
ATOM     16  C19 GLC     4       2.143  40.851  21.298  0.00  0.00    +0.000 A 
ATOM     17  C20 GLC     4       2.000  42.277  21.370  0.00  0.00    +0.000 A 
ENDROOT
BRANCH   3  18
ATOM     18  O3  GLC     4      10.422  43.427  18.307  0.00  0.00    +0.000 OA
ATOM     19  H3  GLC     4      10.910  42.553  18.362  0.00  0.00    +0.000 HD
ENDBRANCH   3  18
BRANCH   4  20
ATOM     20  O4  GLC     4       9.324  40.982  18.896  0.00  0.00    +0.000 OA
ATOM     21  H4  GLC     4       9.775  41.171  18.001  0.00  0.00    +0.000 HD
ENDBRANCH   4  20
BRANCH   8  22
ATOM     22  O1  GLC     4       4.701  44.587  19.390  0.00  0.00    +0.000 OA
ATOM     23  H10 GLC     4       3.766  44.868  19.302  0.00  0.00    +0.000 HD
ENDBRANCH   8  22
BRANCH  16  24
ATOM     24  O1  GLC     4       1.033  40.075  21.311  0.00  0.00    +0.000 OA
ATOM     25  H14 GLC     4       0.739  39.980  20.411  0.00  0.00    +0.000 HD
ENDBRANCH  16  24
TORSDOF 4
ENDMDL
