MODEL 1
REMARK VINA RESULT:    -6.257      0.000      0.000
REMARK INTER + INTRA:          -9.291
REMARK INTER:                  -8.635
REMARK INTRA:                  -0.656
REMARK UNBOUND:                -0.656
REMARK  7 active torsions:
REMARK  status: ('A' for Active; 'I' for Inactive)
REMARK    1  A    between atoms: N2_1  and  C1_2 
REMARK    2  A    between atoms: C1_2  and  C2_3 
REMARK    3  A    between atoms: C2_3  and  C3_4 
REMARK       I    between atoms: C3_4  and  N1_6 
REMARK    4  A    between atoms: N1_6  and  C4_7 
REMARK    5  A    between atoms: C4_7  and  C13_8 
REMARK    6  A    between atoms: C4_7  and  C5_10 
REMARK    7  A    between atoms: C13_8  and  C7_9 
ROOT
HETATM    1  N2  BES   501      22.755   2.237  29.723  1.00  0.00    -0.079 N 
HETATM    2  H1  BES   501      21.875   2.706  30.111  1.00  0.00     0.274 HD
HETATM    3  H2  BES   501      23.617   2.636  30.215  1.00  0.00     0.274 HD
HETATM    4  H1  BES   501      22.702   1.183  29.898  1.00  0.00     0.274 HD
ENDROOT
BRANCH   1   5
HETATM    5  C1  BES   501      22.851   2.492  28.273  1.00  0.00     0.238 C 
BRANCH   5   6
HETATM    6  C2  BES   501      23.585   1.418  27.531  1.00  0.00     0.123 C 
BRANCH   6   7
HETATM    7  C3  BES   501      25.062   1.659  27.656  1.00  0.00     0.199 C 
HETATM    8  O3  BES   501      25.427   2.455  28.491  1.00  0.00    -0.280 OA
HETATM    9  N1  BES   501      25.983   0.927  26.777  1.00  0.00    -0.248 NA
HETATM   10  H7  BES   501      25.680   1.165  25.779  1.00  0.00     0.131 HD
BRANCH   9  11
HETATM   11  C4  BES   501      27.439   1.078  26.790  1.00  0.00     0.169 C 
BRANCH  11  12
HETATM   12  C13 BES   501      28.087  -0.230  27.255  1.00  0.00     0.089 C 
BRANCH  12  13
HETATM   13  C7  BES   501      29.421   0.054  27.971  1.00  0.00     0.031 A 
HETATM   14  C21 BES   501      29.587   0.766  29.326  1.00  0.00     0.143 A 
HETATM   15  N22 BES   501      31.091   0.829  29.650  1.00  0.00    -0.254 N 
HETATM   16  C23 BES   501      31.855   0.154  28.495  1.00  0.00     0.209 A 
HETATM   17  N24 BES   501      30.822  -0.325  27.458  1.00  0.00    -0.348 N 
HETATM   18  C1  BES   501      31.133  -1.045  26.155  1.00  0.00     0.157 C 
ENDBRANCH  12  13
ENDBRANCH  11  12
BRANCH  11  19
HETATM   19  C5  BES   501      27.873   1.353  25.388  1.00  0.00     0.192 C 
HETATM   20  O1  BES   501      27.170   0.934  24.428  1.00  0.00    -0.647 OA
HETATM   21  O4  BES   501      28.926   2.047  25.231  1.00  0.00    -0.647 OA
ENDBRANCH  11  19
ENDBRANCH   9  11
ENDBRANCH   6   7
ENDBRANCH   5   6
ENDBRANCH   1   5
TORSDOF 7
ENDMDL
MODEL 2
REMARK VINA RESULT:    -5.910      2.342      3.289
REMARK INTER + INTRA:          -8.811
REMARK INTER:                  -7.880
REMARK INTRA:                  -0.931
REMARK UNBOUND:                -0.656
REMARK  7 active torsions:
REMARK  status: ('A' for Active; 'I' for Inactive)
REMARK    1  A    between atoms: N2_1  and  C1_2 
REMARK    2  A    between atoms: C1_2  and  C2_3 
REMARK    3  A    between atoms: C2_3  and  C3_4 
REMARK       I    between atoms: C3_4  and  N1_6 
REMARK    4  A    between atoms: N1_6  and  C4_7 
REMARK    5  A    between atoms: C4_7  and  C13_8 
REMARK    6  A    between atoms: C4_7  and  C5_10 
REMARK    7  A    between atoms: C13_8  and  C7_9 
ROOT
HETATM    1  N2  BES   501      22.563   2.295  29.729  1.00  0.00    -0.079 N 
HETATM    2  H1  BES   501      21.902   2.169  30.562  1.00  0.00     0.274 HD
HETATM    3  H2  BES   501      23.359   2.955  30.004  1.00  0.00     0.274 HD
HETATM    4  H1  BES   501      22.969   1.344  29.451  1.00  0.00     0.274 HD
ENDROOT
BRANCH   1   5
HETATM    5  C1  BES   501      21.818   2.866  28.590  1.00  0.00     0.238 C 
BRANCH   5   6
HETATM    6  C2  BES   501      22.612   2.894  27.321  1.00  0.00     0.123 C 
BRANCH   6   7
HETATM    7  C3  BES   501      23.570   1.738  27.318  1.00  0.00     0.199 C 
HETATM    8  O3  BES   501      23.109   0.633  27.135  1.00  0.00    -0.280 OA
HETATM    9  N1  BES   501      25.002   1.994  27.528  1.00  0.00    -0.248 NA
HETATM   10  H7  BES   501      25.069   2.494  28.472  1.00  0.00     0.131 HD
BRANCH   9  11
HETATM   11  C4  BES   501      26.034   0.958  27.558  1.00  0.00     0.169 C 
BRANCH  11  12
HETATM   12  C13 BES   501      27.418   1.609  27.470  1.00  0.00     0.089 C 
BRANCH  12  13
HETATM   13  C7  BES   501      28.336   0.802  26.533  1.00  0.00     0.031 A 
HETATM   14  C21 BES   501      28.367   0.896  24.995  1.00  0.00     0.143 A 
HETATM   15  N22 BES   501      29.432  -0.089  24.481  1.00  0.00    -0.254 N 
HETATM   16  C23 BES   501      30.060  -0.792  25.699  1.00  0.00     0.209 A 
HETATM   17  N24 BES   501      29.382  -0.241  26.967  1.00  0.00    -0.348 N 
HETATM   18  C1  BES   501      29.691  -0.655  28.397  1.00  0.00     0.157 C 
ENDBRANCH  12  13
ENDBRANCH  11  12
BRANCH  11  19
HETATM   19  C5  BES   501      25.923   0.252  28.870  1.00  0.00     0.192 C 
HETATM   20  O1  BES   501      25.975   0.919  29.939  1.00  0.00    -0.647 OA
HETATM   21  O4  BES   501      25.733  -1.004  28.840  1.00  0.00    -0.647 OA
ENDBRANCH  11  19
ENDBRANCH   9  11
ENDBRANCH   6   7
ENDBRANCH   5   6
ENDBRANCH   1   5
TORSDOF 7
ENDMDL
MODEL 3
REMARK VINA RESULT:    -5.881      1.821      2.010
REMARK INTER + INTRA:          -8.772
REMARK INTER:                  -7.909
REMARK INTRA:                  -0.863
REMARK UNBOUND:                -0.656
REMARK  7 active torsions:
REMARK  status: ('A' for Active; 'I' for Inactive)
REMARK    1  A    between atoms: N2_1  and  C1_2 
REMARK    2  A    between atoms: C1_2  and  C2_3 
REMARK    3  A    between atoms: C2_3  and  C3_4 
REMARK       I    between atoms: C3_4  and  N1_6 
REMARK    4  A    between atoms: N1_6  and  C4_7 
REMARK    5  A    between atoms: C4_7  and  C13_8 
REMARK    6  A    between atoms: C4_7  and  C5_10 
REMARK    7  A    between atoms: C13_8  and  C7_9 
ROOT
HETATM    1  N2  BES   501      24.425   0.305  27.082  1.00  0.00    -0.079 N 
HETATM    2  H1  BES   501      25.337   0.756  26.751  1.00  0.00     0.274 HD
HETATM    3  H2  BES   501      23.853  -0.007  26.233  1.00  0.00     0.274 HD
HETATM    4  H1  BES   501      24.649  -0.545  27.693  1.00  0.00     0.274 HD
ENDROOT
BRANCH   1   5
HETATM    5  C1  BES   501      23.648   1.284  27.867  1.00  0.00     0.238 C 
BRANCH   5   6
HETATM    6  C2  BES   501      24.503   2.307  28.549  1.00  0.00     0.123 C 
BRANCH   6   7
HETATM    7  C3  BES   501      25.881   1.742  28.742  1.00  0.00     0.199 C 
HETATM    8  O3  BES   501      26.130   1.237  29.813  1.00  0.00    -0.280 OA
HETATM    9  N1  BES   501      26.848   1.820  27.639  1.00  0.00    -0.248 NA
HETATM   10  H7  BES   501      26.934   2.861  27.404  1.00  0.00     0.131 HD
BRANCH   9  11
HETATM   11  C4  BES   501      28.221   1.318  27.701  1.00  0.00     0.169 C 
BRANCH  11  12
HETATM   12  C13 BES   501      28.277  -0.099  27.122  1.00  0.00     0.089 C 
BRANCH  12  13
HETATM   13  C7  BES   501      29.671  -0.716  27.342  1.00  0.00     0.031 A 
HETATM   14  C21 BES   501      30.313  -1.042  28.704  1.00  0.00     0.143 A 
HETATM   15  N22 BES   501      31.706  -1.642  28.442  1.00  0.00    -0.254 N 
HETATM   16  C23 BES   501      31.926  -1.689  26.918  1.00  0.00     0.209 A 
HETATM   17  N24 BES   501      30.668  -1.116  26.239  1.00  0.00    -0.348 N 
HETATM   18  C1  BES   501      30.449  -0.971  24.741  1.00  0.00     0.157 C 
ENDBRANCH  12  13
ENDBRANCH  11  12
BRANCH  11  19
HETATM   19  C5  BES   501      29.064   2.213  26.854  1.00  0.00     0.192 C 
HETATM   20  O1  BES   501      29.012   2.106  25.598  1.00  0.00    -0.647 OA
HETATM   21  O4  BES   501      29.771   3.084  27.451  1.00  0.00    -0.647 OA
ENDBRANCH  11  19
ENDBRANCH   9  11
ENDBRANCH   6   7
ENDBRANCH   5   6
ENDBRANCH   1   5
TORSDOF 7
ENDMDL
MODEL 4
REMARK VINA RESULT:    -5.716      2.155      3.048
REMARK INTER + INTRA:          -8.544
REMARK INTER:                  -7.526
REMARK INTRA:                  -1.017
REMARK UNBOUND:                -0.656
REMARK  7 active torsions:
REMARK  status: ('A' for Active; 'I' for Inactive)
REMARK    1  A    between atoms: N2_1  and  C1_2 
REMARK    2  A    between atoms: C1_2  and  C2_3 
REMARK    3  A    between atoms: C2_3  and  C3_4 
REMARK       I    between atoms: C3_4  and  N1_6 
REMARK    4  A    between atoms: N1_6  and  C4_7 
REMARK    5  A    between atoms: C4_7  and  C13_8 
REMARK    6  A    between atoms: C4_7  and  C5_10 
REMARK    7  A    between atoms: C13_8  and  C7_9 
ROOT
HETATM    1  N2  BES   501      24.862   1.397  29.904  1.00  0.00    -0.079 N 
HETATM    2  H1  BES   501      24.409   0.467  30.180  1.00  0.00     0.274 HD
HETATM    3  H2  BES   501      25.287   1.857  30.772  1.00  0.00     0.274 HD
HETATM    4  H1  BES   501      25.631   1.217  29.182  1.00  0.00     0.274 HD
ENDROOT
BRANCH   1   5
HETATM    5  C1  BES   501      23.840   2.289  29.323  1.00  0.00     0.238 C 
BRANCH   5   6
HETATM    6  C2  BES   501      23.931   2.400  27.832  1.00  0.00     0.123 C 
BRANCH   6   7
HETATM    7  C3  BES   501      24.975   1.443  27.335  1.00  0.00     0.199 C 
HETATM    8  O3  BES   501      24.598   0.365  26.935  1.00  0.00    -0.280 OA
HETATM    9  N1  BES   501      26.386   1.853  27.350  1.00  0.00    -0.248 NA
HETATM   10  H7  BES   501      26.604   2.099  28.369  1.00  0.00     0.131 HD
BRANCH   9  11
HETATM   11  C4  BES   501      27.499   1.014  26.904  1.00  0.00     0.169 C 
BRANCH  11  12
HETATM   12  C13 BES   501      28.566   1.887  26.236  1.00  0.00     0.089 C 
BRANCH  12  13
HETATM   13  C7  BES   501      29.636   1.009  25.561  1.00  0.00     0.031 A 
HETATM   14  C21 BES   501      29.403   0.041  24.385  1.00  0.00     0.143 A 
HETATM   15  N22 BES   501      30.749  -0.621  24.041  1.00  0.00    -0.254 N 
HETATM   16  C23 BES   501      31.815  -0.064  25.002  1.00  0.00     0.209 A 
HETATM   17  N24 BES   501      31.126   0.944  25.942  1.00  0.00    -0.348 N 
HETATM   18  C1  BES   501      31.800   1.735  27.051  1.00  0.00     0.157 C 
ENDBRANCH  12  13
ENDBRANCH  11  12
BRANCH  11  19
HETATM   19  C5  BES   501      28.095   0.378  28.117  1.00  0.00     0.192 C 
HETATM   20  O1  BES   501      28.674  -0.738  28.010  1.00  0.00    -0.647 OA
HETATM   21  O4  BES   501      28.026   1.026  29.208  1.00  0.00    -0.647 OA
ENDBRANCH  11  19
ENDBRANCH   9  11
ENDBRANCH   6   7
ENDBRANCH   5   6
ENDBRANCH   1   5
TORSDOF 7
ENDMDL
MODEL 5
REMARK VINA RESULT:    -5.645      0.904      1.937
REMARK INTER + INTRA:          -8.446
REMARK INTER:                  -8.038
REMARK INTRA:                  -0.408
REMARK UNBOUND:                -0.656
REMARK  7 active torsions:
REMARK  status: ('A' for Active; 'I' for Inactive)
REMARK    1  A    between atoms: N2_1  and  C1_2 
REMARK    2  A    between atoms: C1_2  and  C2_3 
REMARK    3  A    between atoms: C2_3  and  C3_4 
REMARK       I    between atoms: C3_4  and  N1_6 
REMARK    4  A    between atoms: N1_6  and  C4_7 
REMARK    5  A    between atoms: C4_7  and  C13_8 
REMARK    6  A    between atoms: C4_7  and  C5_10 
REMARK    7  A    between atoms: C13_8  and  C7_9 
ROOT
HETATM    1  N2  BES   501      22.288   2.460  30.262  1.00  0.00    -0.079 N 
HETATM    2  H1  BES   501      22.264   1.937  31.196  1.00  0.00     0.274 HD
HETATM    3  H2  BES   501      21.759   1.894  29.524  1.00  0.00     0.274 HD
HETATM    4  H1  BES   501      21.822   3.416  30.379  1.00  0.00     0.274 HD
ENDROOT
BRANCH   1   5
HETATM    5  C1  BES   501      23.689   2.642  29.834  1.00  0.00     0.238 C 
BRANCH   5   6
HETATM    6  C2  BES   501      24.043   1.842  28.619  1.00  0.00     0.123 C 
BRANCH   6   7
HETATM    7  C3  BES   501      25.538   1.735  28.524  1.00  0.00     0.199 C 
HETATM    8  O3  BES   501      26.178   1.976  29.523  1.00  0.00    -0.280 OA
HETATM    9  N1  BES   501      26.148   1.344  27.246  1.00  0.00    -0.248 NA
HETATM   10  H7  BES   501      25.809   2.066  26.532  1.00  0.00     0.131 HD
BRANCH   9  11
HETATM   11  C4  BES   501      27.587   1.213  27.019  1.00  0.00     0.169 C 
BRANCH  11  12
HETATM   12  C13 BES   501      28.023  -0.229  27.295  1.00  0.00     0.089 C 
BRANCH  12  13
HETATM   13  C7  BES   501      29.559  -0.327  27.358  1.00  0.00     0.031 A 
HETATM   14  C21 BES   501      30.471  -0.955  26.288  1.00  0.00     0.143 A 
HETATM   15  N22 BES   501      31.927  -0.830  26.771  1.00  0.00    -0.254 N 
HETATM   16  C23 BES   501      31.916  -0.124  28.140  1.00  0.00     0.209 A 
HETATM   17  N24 BES   501      30.452   0.187  28.502  1.00  0.00    -0.348 N 
HETATM   18  C1  BES   501      29.972   0.879  29.768  1.00  0.00     0.157 C 
ENDBRANCH  12  13
ENDBRANCH  11  12
BRANCH  11  19
HETATM   19  C5  BES   501      27.843   1.521  25.580  1.00  0.00     0.192 C 
HETATM   20  O1  BES   501      28.882   2.161  25.259  1.00  0.00    -0.647 OA
HETATM   21  O4  BES   501      27.009   1.075  24.731  1.00  0.00    -0.647 OA
ENDBRANCH  11  19
ENDBRANCH   9  11
ENDBRANCH   6   7
ENDBRANCH   5   6
ENDBRANCH   1   5
TORSDOF 7
ENDMDL
MODEL 6
REMARK VINA RESULT:    -5.614      2.595      6.928
REMARK INTER + INTRA:          -8.403
REMARK INTER:                  -7.507
REMARK INTRA:                  -0.896
REMARK UNBOUND:                -0.656
REMARK  7 active torsions:
REMARK  status: ('A' for Active; 'I' for Inactive)
REMARK    1  A    between atoms: N2_1  and  C1_2 
REMARK    2  A    between atoms: C1_2  and  C2_3 
REMARK    3  A    between atoms: C2_3  and  C3_4 
REMARK       I    between atoms: C3_4  and  N1_6 
REMARK    4  A    between atoms: N1_6  and  C4_7 
REMARK    5  A    between atoms: C4_7  and  C13_8 
REMARK    6  A    between atoms: C4_7  and  C5_10 
REMARK    7  A    between atoms: C13_8  and  C7_9 
ROOT
HETATM    1  N2  BES   501      28.274  -0.649  27.366  1.00  0.00    -0.079 N 
HETATM    2  H1  BES   501      27.825  -1.144  26.530  1.00  0.00     0.274 HD
HETATM    3  H2  BES   501      27.508  -0.302  28.028  1.00  0.00     0.274 HD
HETATM    4  H1  BES   501      28.910  -1.335  27.886  1.00  0.00     0.274 HD
ENDROOT
BRANCH   1   5
HETATM    5  C1  BES   501      29.071   0.498  26.889  1.00  0.00     0.238 C 
BRANCH   5   6
HETATM    6  C2  BES   501      28.735   1.781  27.587  1.00  0.00     0.123 C 
BRANCH   6   7
HETATM    7  C3  BES   501      27.481   1.587  28.388  1.00  0.00     0.199 C 
HETATM    8  O3  BES   501      27.606   1.326  29.564  1.00  0.00    -0.280 OA
HETATM    9  N1  BES   501      26.178   1.725  27.724  1.00  0.00    -0.248 NA
HETATM   10  H7  BES   501      26.186   1.015  26.922  1.00  0.00     0.131 HD
BRANCH   9  11
HETATM   11  C4  BES   501      24.885   1.551  28.386  1.00  0.00     0.169 C 
BRANCH  11  12
HETATM   12  C13 BES   501      23.877   2.556  27.821  1.00  0.00     0.089 C 
BRANCH  12  13
HETATM   13  C7  BES   501      22.746   2.815  28.834  1.00  0.00     0.031 A 
HETATM   14  C21 BES   501      22.920   3.027  30.350  1.00  0.00     0.143 A 
HETATM   15  N22 BES   501      21.525   3.250  30.961  1.00  0.00    -0.254 N 
HETATM   16  C23 BES   501      20.488   3.176  29.824  1.00  0.00     0.209 A 
HETATM   17  N24 BES   501      21.244   2.907  28.509  1.00  0.00    -0.348 N 
HETATM   18  C1  BES   501      20.617   2.759  27.132  1.00  0.00     0.157 C 
ENDBRANCH  12  13
ENDBRANCH  11  12
BRANCH  11  19
HETATM   19  C5  BES   501      24.405   0.171  28.078  1.00  0.00     0.192 C 
HETATM   20  O1  BES   501      23.339   0.018  27.421  1.00  0.00    -0.647 OA
HETATM   21  O4  BES   501      25.132  -0.798  28.462  1.00  0.00    -0.647 OA
ENDBRANCH  11  19
ENDBRANCH   9  11
ENDBRANCH   6   7
ENDBRANCH   5   6
ENDBRANCH   1   5
TORSDOF 7
ENDMDL
MODEL 7
REMARK VINA RESULT:    -5.564      2.634      3.528
REMARK INTER + INTRA:          -8.334
REMARK INTER:                  -7.773
REMARK INTRA:                  -0.562
REMARK UNBOUND:                -0.656
REMARK  7 active torsions:
REMARK  status: ('A' for Active; 'I' for Inactive)
REMARK    1  A    between atoms: N2_1  and  C1_2 
REMARK    2  A    between atoms: C1_2  and  C2_3 
REMARK    3  A    between atoms: C2_3  and  C3_4 
REMARK       I    between atoms: C3_4  and  N1_6 
REMARK    4  A    between atoms: N1_6  and  C4_7 
REMARK    5  A    between atoms: C4_7  and  C13_8 
REMARK    6  A    between atoms: C4_7  and  C5_10 
REMARK    7  A    between atoms: C13_8  and  C7_9 
ROOT
HETATM    1  N2  BES   501      27.462  -0.825  28.061  1.00  0.00    -0.079 N 
HETATM    2  H1  BES   501      27.911  -0.989  29.018  1.00  0.00     0.274 HD
HETATM    3  H2  BES   501      28.117  -1.184  27.294  1.00  0.00     0.274 HD
HETATM    4  H1  BES   501      26.532  -1.352  28.010  1.00  0.00     0.274 HD
ENDROOT
BRANCH   1   5
HETATM    5  C1  BES   501      27.223   0.619  27.869  1.00  0.00     0.238 C 
BRANCH   5   6
HETATM    6  C2  BES   501      26.529   0.936  26.580  1.00  0.00     0.123 C 
BRANCH   6   7
HETATM    7  C3  BES   501      27.552   1.023  25.484  1.00  0.00     0.199 C 
HETATM    8  O3  BES   501      27.145   1.168  24.354  1.00  0.00    -0.280 OA
HETATM    9  N1  BES   501      28.978   0.935  25.827  1.00  0.00    -0.248 NA
HETATM   10  H7  BES   501      29.095  -0.001  26.333  1.00  0.00     0.131 HD
BRANCH   9  11
HETATM   11  C4  BES   501      30.070   0.994  24.856  1.00  0.00     0.169 C 
BRANCH  11  12
HETATM   12  C13 BES   501      31.414   0.992  25.592  1.00  0.00     0.089 C 
BRANCH  12  13
HETATM   13  C7  BES   501      31.206   0.721  27.094  1.00  0.00     0.031 A 
HETATM   14  C21 BES   501      31.172  -0.663  27.768  1.00  0.00     0.143 A 
HETATM   15  N22 BES   501      30.939  -0.452  29.275  1.00  0.00    -0.254 N 
HETATM   16  C23 BES   501      30.831   1.063  29.534  1.00  0.00     0.209 A 
HETATM   17  N24 BES   501      30.995   1.787  28.185  1.00  0.00    -0.348 N 
HETATM   18  C1  BES   501      30.956   3.292  27.968  1.00  0.00     0.157 C 
ENDBRANCH  12  13
ENDBRANCH  11  12
BRANCH  11  19
HETATM   19  C5  BES   501      29.987  -0.235  24.012  1.00  0.00     0.192 C 
HETATM   20  O1  BES   501      29.615  -0.137  22.810  1.00  0.00    -0.647 OA
HETATM   21  O4  BES   501      30.346  -1.332  24.544  1.00  0.00    -0.647 OA
ENDBRANCH  11  19
ENDBRANCH   9  11
ENDBRANCH   6   7
ENDBRANCH   5   6
ENDBRANCH   1   5
TORSDOF 7
ENDMDL
MODEL 8
REMARK VINA RESULT:    -5.486      2.717      5.806
REMARK INTER + INTRA:          -8.227
REMARK INTER:                  -7.467
REMARK INTRA:                  -0.760
REMARK UNBOUND:                -0.656
REMARK  7 active torsions:
REMARK  status: ('A' for Active; 'I' for Inactive)
REMARK    1  A    between atoms: N2_1  and  C1_2 
REMARK    2  A    between atoms: C1_2  and  C2_3 
REMARK    3  A    between atoms: C2_3  and  C3_4 
REMARK       I    between atoms: C3_4  and  N1_6 
REMARK    4  A    between atoms: N1_6  and  C4_7 
REMARK    5  A    between atoms: C4_7  and  C13_8 
REMARK    6  A    between atoms: C4_7  and  C5_10 
REMARK    7  A    between atoms: C13_8  and  C7_9 
ROOT
HETATM    1  N2  BES   501      30.755  -3.566  30.370  1.00  0.00    -0.079 N 
HETATM    2  H1  BES   501      31.294  -3.331  31.264  1.00  0.00     0.274 HD
HETATM    3  H2  BES   501      30.342  -4.550  30.451  1.00  0.00     0.274 HD
HETATM    4  H1  BES   501      29.964  -2.858  30.234  1.00  0.00     0.274 HD
ENDROOT
BRANCH   1   5
HETATM    5  C1  BES   501      31.671  -3.510  29.213  1.00  0.00     0.238 C 
BRANCH   5   6
HETATM    6  C2  BES   501      31.924  -2.115  28.728  1.00  0.00     0.123 C 
BRANCH   6   7
HETATM    7  C3  BES   501      30.737  -1.651  27.934  1.00  0.00     0.199 C 
HETATM    8  O3  BES   501      29.641  -1.842  28.409  1.00  0.00    -0.280 OA
HETATM    9  N1  BES   501      30.956  -0.993  26.639  1.00  0.00    -0.248 NA
HETATM   10  H7  BES   501      31.512  -1.693  26.050  1.00  0.00     0.131 HD
BRANCH   9  11
HETATM   11  C4  BES   501      29.889  -0.505  25.765  1.00  0.00     0.169 C 
BRANCH  11  12
HETATM   12  C13 BES   501      29.598   0.966  26.080  1.00  0.00     0.089 C 
BRANCH  12  13
HETATM   13  C7  BES   501      28.262   1.102  26.834  1.00  0.00     0.031 A 
HETATM   14  C21 BES   501      26.859   1.099  26.198  1.00  0.00     0.143 A 
HETATM   15  N22 BES   501      25.825   1.261  27.326  1.00  0.00    -0.254 N 
HETATM   16  C23 BES   501      26.587   1.364  28.660  1.00  0.00     0.209 A 
HETATM   17  N24 BES   501      28.093   1.266  28.355  1.00  0.00    -0.348 N 
HETATM   18  C1  BES   501      29.217   1.321  29.378  1.00  0.00     0.157 C 
ENDBRANCH  12  13
ENDBRANCH  11  12
BRANCH  11  19
HETATM   19  C5  BES   501      30.382  -0.602  24.359  1.00  0.00     0.192 C 
HETATM   20  O1  BES   501      31.092  -1.587  24.018  1.00  0.00    -0.647 OA
HETATM   21  O4  BES   501      30.017   0.308  23.550  1.00  0.00    -0.647 OA
ENDBRANCH  11  19
ENDBRANCH   9  11
ENDBRANCH   6   7
ENDBRANCH   5   6
ENDBRANCH   1   5
TORSDOF 7
ENDMDL
MODEL 9
REMARK VINA RESULT:    -5.345      1.811      2.767
REMARK INTER + INTRA:          -8.032
REMARK INTER:                  -7.384
REMARK INTRA:                  -0.647
REMARK UNBOUND:                -0.656
REMARK  7 active torsions:
REMARK  status: ('A' for Active; 'I' for Inactive)
REMARK    1  A    between atoms: N2_1  and  C1_2 
REMARK    2  A    between atoms: C1_2  and  C2_3 
REMARK    3  A    between atoms: C2_3  and  C3_4 
REMARK       I    between atoms: C3_4  and  N1_6 
REMARK    4  A    between atoms: N1_6  and  C4_7 
REMARK    5  A    between atoms: C4_7  and  C13_8 
REMARK    6  A    between atoms: C4_7  and  C5_10 
REMARK    7  A    between atoms: C13_8  and  C7_9 
ROOT
HETATM    1  N2  BES   501      24.362   0.264  27.060  1.00  0.00    -0.079 N 
HETATM    2  H1  BES   501      25.037   0.803  26.428  1.00  0.00     0.274 HD
HETATM    3  H2  BES   501      23.434   0.793  27.123  1.00  0.00     0.274 HD
HETATM    4  H1  BES   501      24.191  -0.709  26.650  1.00  0.00     0.274 HD
ENDROOT
BRANCH   1   5
HETATM    5  C1  BES   501      24.948   0.134  28.409  1.00  0.00     0.238 C 
BRANCH   5   6
HETATM    6  C2  BES   501      26.419  -0.147  28.389  1.00  0.00     0.123 C 
BRANCH   6   7
HETATM    7  C3  BES   501      27.117   0.957  27.650  1.00  0.00     0.199 C 
HETATM    8  O3  BES   501      26.615   2.057  27.687  1.00  0.00    -0.280 OA
HETATM    9  N1  BES   501      28.363   0.659  26.929  1.00  0.00    -0.248 NA
HETATM   10  H7  BES   501      28.115  -0.117  26.234  1.00  0.00     0.131 HD
BRANCH   9  11
HETATM   11  C4  BES   501      29.133   1.639  26.163  1.00  0.00     0.169 C 
BRANCH  11  12
HETATM   12  C13 BES   501      30.580   1.662  26.666  1.00  0.00     0.089 C 
BRANCH  12  13
HETATM   13  C7  BES   501      30.972   0.290  27.245  1.00  0.00     0.031 A 
HETATM   14  C21 BES   501      31.576  -0.887  26.455  1.00  0.00     0.143 A 
HETATM   15  N22 BES   501      31.805  -2.050  27.437  1.00  0.00    -0.254 N 
HETATM   16  C23 BES   501      31.345  -1.593  28.834  1.00  0.00     0.209 A 
HETATM   17  N24 BES   501      30.830  -0.147  28.714  1.00  0.00    -0.348 N 
HETATM   18  C1  BES   501      30.277   0.701  29.849  1.00  0.00     0.157 C 
ENDBRANCH  12  13
ENDBRANCH  11  12
BRANCH  11  19
HETATM   19  C5  BES   501      29.131   1.195  24.737  1.00  0.00     0.192 C 
HETATM   20  O1  BES   501      30.175   1.337  24.043  1.00  0.00    -0.647 OA
HETATM   21  O4  BES   501      28.072   0.647  24.300  1.00  0.00    -0.647 OA
ENDBRANCH  11  19
ENDBRANCH   9  11
ENDBRANCH   6   7
ENDBRANCH   5   6
ENDBRANCH   1   5
TORSDOF 7
ENDMDL
