MODEL 1
REMARK VINA RESULT:    -6.275      0.000      0.000
REMARK INTER + INTRA:          -9.561
REMARK INTER:                  -9.026
REMARK INTRA:                  -0.535
REMARK UNBOUND:                -0.535
REMARK  8 active torsions:
REMARK  status: ('A' for Active; 'I' for Inactive)
REMARK    1  A    between atoms: C70_1  and  C1_2 
REMARK    2  A    between atoms: C70_1  and  N12_19 
REMARK    3  A    between atoms: C1_2  and  C2_3 
REMARK    4  A    between atoms: C2_3  and  C3_4 
REMARK       I    between atoms: C3_4  and  N1_6 
REMARK    5  A    between atoms: N1_6  and  C4_7 
REMARK    6  A    between atoms: C4_7  and  C13_8 
REMARK    7  A    between atoms: C4_7  and  C5_10 
REMARK    8  A    between atoms: C13_8  and  C7_9 
ROOT
HETATM    1  C70 BES A 501      21.442   2.259  27.543  1.00  6.08     0.230 C 
ENDROOT
BRANCH   1   2
HETATM    2  C1  BES A 501      22.838   2.386  27.400  1.00  6.71     0.036 C 
BRANCH   2   3
HETATM    3  C2  BES A 501      23.663   1.150  27.584  1.00  9.09     0.098 C 
BRANCH   3   4
HETATM    4  C3  BES A 501      25.112   1.538  27.666  1.00  8.29     0.198 C 
HETATM    5  O3  BES A 501      25.411   2.412  28.448  1.00  7.85    -0.280 OA
HETATM    6  N1  BES A 501      26.088   0.846  26.813  1.00  8.97    -0.248 NA
HETATM    7  H7  BES A 501      25.749   0.996  25.808  1.00  8.27     0.131 HD
BRANCH   6   8
HETATM    8  C4  BES A 501      27.522   1.135  26.790  1.00 10.85     0.169 C 
BRANCH   8   9
HETATM    9  C13 BES A 501      28.302  -0.095  27.264  1.00  8.22     0.089 C 
BRANCH   9  10
HETATM   10  C7  BES A 501      29.603   0.329  27.972  1.00 11.21     0.029 A 
HETATM   11  C21 BES A 501      30.574  -0.606  28.716  1.00  0.00     0.143 A 
HETATM   12  N22 BES A 501      31.732   0.250  29.263  1.00  0.00    -0.254 N 
HETATM   13  C23 BES A 501      31.476   1.713  28.857  1.00  0.00     0.207 A 
HETATM   14  N24 BES A 501      30.160   1.762  28.058  1.00  0.00    -0.353 N 
HETATM   15  H13 BES A 501      29.712   2.638  27.637  1.00  8.23     0.166 HD
ENDBRANCH   9  10
ENDBRANCH   8   9
BRANCH   8  16
HETATM   16  C5  BES A 501      27.900   1.420  25.373  1.00 10.09     0.192 C 
HETATM   17  O1  BES A 501      27.170   0.985  24.439  1.00  5.58    -0.647 OA
HETATM   18  O4  BES A 501      28.929   2.137  25.178  1.00  5.29    -0.647 OA
ENDBRANCH   8  16
ENDBRANCH   6   8
ENDBRANCH   3   4
ENDBRANCH   2   3
ENDBRANCH   1   2
BRANCH   1  19
HETATM   19  N12 BES A 501      20.812   2.024  26.179  1.00  8.22    -0.079 N 
HETATM   20  H14 BES A 501      21.159   2.767  25.493  1.00  8.22     0.274 HD
HETATM   21  H15 BES A 501      19.747   2.085  26.262  1.00  8.22     0.274 HD
HETATM   22  H6  BES A 501      21.086   1.054  25.821  1.00  8.22     0.274 HD
ENDBRANCH   1  19
TORSDOF 8
ENDMDL
MODEL 2
REMARK VINA RESULT:    -6.193      1.529      6.901
REMARK INTER + INTRA:          -9.444
REMARK INTER:                  -8.954
REMARK INTRA:                  -0.490
REMARK UNBOUND:                -0.535
REMARK  8 active torsions:
REMARK  status: ('A' for Active; 'I' for Inactive)
REMARK    1  A    between atoms: C70_1  and  C1_2 
REMARK    2  A    between atoms: C70_1  and  N12_19 
REMARK    3  A    between atoms: C1_2  and  C2_3 
REMARK    4  A    between atoms: C2_3  and  C3_4 
REMARK       I    between atoms: C3_4  and  N1_6 
REMARK    5  A    between atoms: N1_6  and  C4_7 
REMARK    6  A    between atoms: C4_7  and  C13_8 
REMARK    7  A    between atoms: C4_7  and  C5_10 
REMARK    8  A    between atoms: C13_8  and  C7_9 
ROOT
HETATM    1  C70 BES A 501      30.629   0.091  28.568  1.00  6.08     0.230 C 
ENDROOT
BRANCH   1   2
HETATM    2  C1  BES A 501      29.856  -0.881  27.902  1.00  6.71     0.036 C 
BRANCH   2   3
HETATM    3  C2  BES A 501      29.153  -0.461  26.649  1.00  9.09     0.098 C 
BRANCH   3   4
HETATM    4  C3  BES A 501      28.099   0.550  26.997  1.00  8.29     0.198 C 
HETATM    5  O3  BES A 501      28.296   1.698  26.664  1.00  7.85    -0.280 OA
HETATM    6  N1  BES A 501      26.891   0.109  27.709  1.00  8.97    -0.248 NA
HETATM    7  H7  BES A 501      27.240  -0.347  28.612  1.00  8.27     0.131 HD
BRANCH   6   8
HETATM    8  C4  BES A 501      25.797   0.993  28.114  1.00 10.85     0.169 C 
BRANCH   8   9
HETATM    9  C13 BES A 501      24.475   0.220  28.086  1.00  8.22     0.089 C 
BRANCH   9  10
HETATM   10  C7  BES A 501      23.330   1.125  27.593  1.00 11.21     0.029 A 
HETATM   11  C21 BES A 501      23.422   2.640  27.334  1.00  0.00     0.143 A 
HETATM   12  N22 BES A 501      22.042   3.125  26.854  1.00  0.00    -0.254 N 
HETATM   13  C23 BES A 501      21.096   1.909  26.816  1.00  0.00     0.207 A 
HETATM   14  N24 BES A 501      21.893   0.673  27.273  1.00  0.00    -0.353 N 
HETATM   15  H13 BES A 501      21.515  -0.325  27.354  1.00  8.23     0.166 HD
ENDBRANCH   9  10
ENDBRANCH   8   9
BRANCH   8  16
HETATM   16  C5  BES A 501      26.066   1.425  29.518  1.00 10.09     0.192 C 
HETATM   17  O1  BES A 501      25.101   1.773  30.253  1.00  5.58    -0.647 OA
HETATM   18  O4  BES A 501      27.269   1.375  29.922  1.00  5.29    -0.647 OA
ENDBRANCH   8  16
ENDBRANCH   6   8
ENDBRANCH   3   4
ENDBRANCH   2   3
ENDBRANCH   1   2
BRANCH   1  19
HETATM   19  N12 BES A 501      30.046   0.344  29.950  1.00  8.22    -0.079 N 
HETATM   20  H14 BES A 501      30.830   0.617  30.623  1.00  8.22     0.274 HD
HETATM   21  H15 BES A 501      29.566  -0.545  30.302  1.00  8.22     0.274 HD
HETATM   22  H6  BES A 501      29.330   1.137  29.895  1.00  8.22     0.274 HD
ENDBRANCH   1  19
TORSDOF 8
ENDMDL
MODEL 3
REMARK VINA RESULT:    -6.019      2.127      2.636
REMARK INTER + INTRA:          -9.194
REMARK INTER:                  -8.501
REMARK INTRA:                  -0.693
REMARK UNBOUND:                -0.535
REMARK  8 active torsions:
REMARK  status: ('A' for Active; 'I' for Inactive)
REMARK    1  A    between atoms: C70_1  and  C1_2 
REMARK    2  A    between atoms: C70_1  and  N12_19 
REMARK    3  A    between atoms: C1_2  and  C2_3 
REMARK    4  A    between atoms: C2_3  and  C3_4 
REMARK       I    between atoms: C3_4  and  N1_6 
REMARK    5  A    between atoms: N1_6  and  C4_7 
REMARK    6  A    between atoms: C4_7  and  C13_8 
REMARK    7  A    between atoms: C4_7  and  C5_10 
REMARK    8  A    between atoms: C13_8  and  C7_9 
ROOT
HETATM    1  C70 BES A 501      23.790   2.188  28.211  1.00  6.08     0.230 C 
ENDROOT
BRANCH   1   2
HETATM    2  C1  BES A 501      24.414   1.201  27.422  1.00  6.71     0.036 C 
BRANCH   2   3
HETATM    3  C2  BES A 501      25.227   0.165  28.132  1.00  9.09     0.098 C 
BRANCH   3   4
HETATM    4  C3  BES A 501      26.628   0.677  28.306  1.00  8.29     0.198 C 
HETATM    5  O3  BES A 501      26.858   1.349  29.287  1.00  7.85    -0.280 OA
HETATM    6  N1  BES A 501      27.643   0.343  27.297  1.00  8.97    -0.248 NA
HETATM    7  H7  BES A 501      27.257   0.708  26.368  1.00  8.27     0.131 HD
BRANCH   6   8
HETATM    8  C4  BES A 501      29.037   0.788  27.343  1.00 10.85     0.169 C 
BRANCH   8   9
HETATM    9  C13 BES A 501      29.934  -0.267  26.688  1.00  8.22     0.089 C 
BRANCH   9  10
HETATM   10  C7  BES A 501      30.361  -1.329  27.718  1.00 11.21     0.029 A 
HETATM   11  C21 BES A 501      31.787  -1.879  27.912  1.00  0.00     0.143 A 
HETATM   12  N22 BES A 501      31.745  -2.917  29.049  1.00  0.00    -0.254 N 
HETATM   13  C23 BES A 501      30.293  -3.010  29.557  1.00  0.00     0.207 A 
HETATM   14  N24 BES A 501      29.438  -2.027  28.734  1.00  0.00    -0.353 N 
HETATM   15  H13 BES A 501      28.388  -1.860  28.848  1.00  8.23     0.166 HD
ENDBRANCH   9  10
ENDBRANCH   8   9
BRANCH   8  16
HETATM   16  C5  BES A 501      29.131   2.051  26.552  1.00 10.09     0.192 C 
HETATM   17  O1  BES A 501      28.855   2.031  25.320  1.00  5.58    -0.647 OA
HETATM   18  O4  BES A 501      29.446   3.109  27.179  1.00  5.29    -0.647 OA
ENDBRANCH   8  16
ENDBRANCH   6   8
ENDBRANCH   3   4
ENDBRANCH   2   3
ENDBRANCH   1   2
BRANCH   1  19
HETATM   19  N12 BES A 501      23.439   1.602  29.571  1.00  8.22    -0.079 N 
HETATM   20  H14 BES A 501      23.485   0.535  29.522  1.00  8.22     0.274 HD
HETATM   21  H15 BES A 501      22.450   1.904  29.845  1.00  8.22     0.274 HD
HETATM   22  H6  BES A 501      24.135   1.956  30.302  1.00  8.22     0.274 HD
ENDBRANCH   1  19
TORSDOF 8
ENDMDL
MODEL 4
REMARK VINA RESULT:    -5.989      2.173      6.478
REMARK INTER + INTRA:          -9.150
REMARK INTER:                  -8.562
REMARK INTRA:                  -0.589
REMARK UNBOUND:                -0.535
REMARK  8 active torsions:
REMARK  status: ('A' for Active; 'I' for Inactive)
REMARK    1  A    between atoms: C70_1  and  C1_2 
REMARK    2  A    between atoms: C70_1  and  N12_19 
REMARK    3  A    between atoms: C1_2  and  C2_3 
REMARK    4  A    between atoms: C2_3  and  C3_4 
REMARK       I    between atoms: C3_4  and  N1_6 
REMARK    5  A    between atoms: N1_6  and  C4_7 
REMARK    6  A    between atoms: C4_7  and  C13_8 
REMARK    7  A    between atoms: C4_7  and  C5_10 
REMARK    8  A    between atoms: C13_8  and  C7_9 
ROOT
HETATM    1  C70 BES A 501      31.510  -2.360  28.665  1.00  6.08     0.230 C 
ENDROOT
BRANCH   1   2
HETATM    2  C1  BES A 501      31.891  -1.132  28.089  1.00  6.71     0.036 C 
BRANCH   2   3
HETATM    3  C2  BES A 501      31.822  -1.021  26.598  1.00  9.09     0.098 C 
BRANCH   3   4
HETATM    4  C3  BES A 501      30.406  -0.719  26.197  1.00  8.29     0.198 C 
HETATM    5  O3  BES A 501      29.983  -1.258  25.199  1.00  7.85    -0.280 OA
HETATM    6  N1  BES A 501      29.607   0.198  27.023  1.00  8.97    -0.248 NA
HETATM    7  H7  BES A 501      30.159   1.115  27.051  1.00  8.27     0.131 HD
BRANCH   6   8
HETATM    8  C4  BES A 501      28.225   0.581  26.737  1.00 10.85     0.169 C 
BRANCH   8   9
HETATM    9  C13 BES A 501      27.711   1.512  27.840  1.00  8.22     0.089 C 
BRANCH   9  10
HETATM   10  C7  BES A 501      26.189   1.351  28.016  1.00 11.21     0.029 A 
HETATM   11  C21 BES A 501      25.346   1.928  29.169  1.00  0.00     0.143 A 
HETATM   12  N22 BES A 501      23.880   1.520  28.937  1.00  0.00    -0.254 N 
HETATM   13  C23 BES A 501      23.816   0.691  27.640  1.00  0.00     0.207 A 
HETATM   14  N24 BES A 501      25.244   0.587  27.071  1.00  0.00    -0.353 N 
HETATM   15  H13 BES A 501      25.529   0.074  26.176  1.00  8.23     0.166 HD
ENDBRANCH   9  10
ENDBRANCH   8   9
BRANCH   8  16
HETATM   16  C5  BES A 501      28.226   1.331  25.445  1.00 10.09     0.192 C 
HETATM   17  O1  BES A 501      29.148   2.161  25.212  1.00  5.58    -0.647 OA
HETATM   18  O4  BES A 501      27.307   1.058  24.612  1.00  5.29    -0.647 OA
ENDBRANCH   8  16
ENDBRANCH   6   8
ENDBRANCH   3   4
ENDBRANCH   2   3
ENDBRANCH   1   2
BRANCH   1  19
HETATM   19  N12 BES A 501      30.238  -2.168  29.476  1.00  8.22    -0.079 N 
HETATM   20  H14 BES A 501      29.399  -2.515  28.910  1.00  8.22     0.274 HD
HETATM   21  H15 BES A 501      30.112  -1.130  29.701  1.00  8.22     0.274 HD
HETATM   22  H6  BES A 501      30.308  -2.724  30.387  1.00  8.22     0.274 HD
ENDBRANCH   1  19
TORSDOF 8
ENDMDL
MODEL 5
REMARK VINA RESULT:    -5.938      2.418      3.010
REMARK INTER + INTRA:          -9.077
REMARK INTER:                  -8.181
REMARK INTRA:                  -0.896
REMARK UNBOUND:                -0.535
REMARK  8 active torsions:
REMARK  status: ('A' for Active; 'I' for Inactive)
REMARK    1  A    between atoms: C70_1  and  C1_2 
REMARK    2  A    between atoms: C70_1  and  N12_19 
REMARK    3  A    between atoms: C1_2  and  C2_3 
REMARK    4  A    between atoms: C2_3  and  C3_4 
REMARK       I    between atoms: C3_4  and  N1_6 
REMARK    5  A    between atoms: N1_6  and  C4_7 
REMARK    6  A    between atoms: C4_7  and  C13_8 
REMARK    7  A    between atoms: C4_7  and  C5_10 
REMARK    8  A    between atoms: C13_8  and  C7_9 
ROOT
HETATM    1  C70 BES A 501      22.782   2.469  28.654  1.00  6.08     0.230 C 
ENDROOT
BRANCH   1   2
HETATM    2  C1  BES A 501      24.040   2.600  28.033  1.00  6.71     0.036 C 
BRANCH   2   3
HETATM    3  C2  BES A 501      24.756   1.340  27.657  1.00  9.09     0.098 C 
BRANCH   3   4
HETATM    4  C3  BES A 501      26.043   1.262  28.428  1.00  8.29     0.198 C 
HETATM    5  O3  BES A 501      25.978   1.362  29.632  1.00  7.85    -0.280 OA
HETATM    6  N1  BES A 501      27.303   1.064  27.698  1.00  8.97    -0.248 NA
HETATM    7  H7  BES A 501      27.366   1.879  27.007  1.00  8.27     0.131 HD
BRANCH   6   8
HETATM    8  C4  BES A 501      28.622   0.981  28.327  1.00 10.85     0.169 C 
BRANCH   8   9
HETATM    9  C13 BES A 501      29.288  -0.346  27.951  1.00  8.22     0.089 C 
BRANCH   9  10
HETATM   10  C7  BES A 501      29.638  -0.370  26.451  1.00 11.21     0.029 A 
HETATM   11  C21 BES A 501      30.996  -0.768  25.845  1.00  0.00     0.143 A 
HETATM   12  N22 BES A 501      30.889  -0.643  24.314  1.00  0.00    -0.254 N 
HETATM   13  C23 BES A 501      29.464  -0.168  23.973  1.00  0.00     0.207 A 
HETATM   14  N24 BES A 501      28.690   0.001  25.295  1.00  0.00    -0.353 N 
HETATM   15  H13 BES A 501      27.674   0.320  25.392  1.00  8.23     0.166 HD
ENDBRANCH   9  10
ENDBRANCH   8   9
BRANCH   8  16
HETATM   16  C5  BES A 501      29.450   2.099  27.782  1.00 10.09     0.192 C 
HETATM   17  O1  BES A 501      28.985   2.818  26.854  1.00  5.58    -0.647 OA
HETATM   18  O4  BES A 501      30.582   2.301  28.320  1.00  5.29    -0.647 OA
ENDBRANCH   8  16
ENDBRANCH   6   8
ENDBRANCH   3   4
ENDBRANCH   2   3
ENDBRANCH   1   2
BRANCH   1  19
HETATM   19  N12 BES A 501      22.967   2.384  30.162  1.00  8.22    -0.079 N 
HETATM   20  H14 BES A 501      22.073   2.712  30.649  1.00  8.22     0.274 HD
HETATM   21  H15 BES A 501      23.784   3.008  30.457  1.00  8.22     0.274 HD
HETATM   22  H6  BES A 501      23.172   1.372  30.439  1.00  8.22     0.274 HD
ENDBRANCH   1  19
TORSDOF 8
ENDMDL
MODEL 6
REMARK VINA RESULT:    -5.888      2.396      6.430
REMARK INTER + INTRA:          -9.006
REMARK INTER:                  -8.161
REMARK INTRA:                  -0.845
REMARK UNBOUND:                -0.535
REMARK  8 active torsions:
REMARK  status: ('A' for Active; 'I' for Inactive)
REMARK    1  A    between atoms: C70_1  and  C1_2 
REMARK    2  A    between atoms: C70_1  and  N12_19 
REMARK    3  A    between atoms: C1_2  and  C2_3 
REMARK    4  A    between atoms: C2_3  and  C3_4 
REMARK       I    between atoms: C3_4  and  N1_6 
REMARK    5  A    between atoms: N1_6  and  C4_7 
REMARK    6  A    between atoms: C4_7  and  C13_8 
REMARK    7  A    between atoms: C4_7  and  C5_10 
REMARK    8  A    between atoms: C13_8  and  C7_9 
ROOT
HETATM    1  C70 BES A 501      31.438  -0.715  25.636  1.00  6.08     0.230 C 
ENDROOT
BRANCH   1   2
HETATM    2  C1  BES A 501      30.217  -0.987  24.986  1.00  6.71     0.036 C 
BRANCH   2   3
HETATM    3  C2  BES A 501      29.524   0.159  24.318  1.00  9.09     0.098 C 
BRANCH   3   4
HETATM    4  C3  BES A 501      28.850   1.000  25.364  1.00  8.29     0.198 C 
HETATM    5  O3  BES A 501      28.881   2.201  25.218  1.00  7.85    -0.280 OA
HETATM    6  N1  BES A 501      28.189   0.338  26.498  1.00  8.97    -0.248 NA
HETATM    7  H7  BES A 501      28.948  -0.253  26.968  1.00  8.27     0.131 HD
BRANCH   6   8
HETATM    8  C4  BES A 501      27.508   1.040  27.586  1.00 10.85     0.169 C 
BRANCH   8   9
HETATM    9  C13 BES A 501      26.284   0.234  28.031  1.00  8.22     0.089 C 
BRANCH   9  10
HETATM   10  C7  BES A 501      25.146   1.176  28.468  1.00 11.21     0.029 A 
HETATM   11  C21 BES A 501      24.143   1.877  27.532  1.00  0.00     0.143 A 
HETATM   12  N22 BES A 501      23.189   2.715  28.402  1.00  0.00    -0.254 N 
HETATM   13  C23 BES A 501      23.602   2.534  29.875  1.00  0.00     0.207 A 
HETATM   14  N24 BES A 501      24.812   1.581  29.915  1.00  0.00    -0.353 N 
HETATM   15  H13 BES A 501      25.330   1.258  30.794  1.00  8.23     0.166 HD
ENDBRANCH   9  10
ENDBRANCH   8   9
BRANCH   8  16
HETATM   16  C5  BES A 501      28.463   1.125  28.731  1.00 10.09     0.192 C 
HETATM   17  O1  BES A 501      28.019   1.348  29.892  1.00  5.58    -0.647 OA
HETATM   18  O4  BES A 501      29.691   0.921  28.482  1.00  5.29    -0.647 OA
ENDBRANCH   8  16
ENDBRANCH   6   8
ENDBRANCH   3   4
ENDBRANCH   2   3
ENDBRANCH   1   2
BRANCH   1  19
HETATM   19  N12 BES A 501      31.297  -1.003  27.123  1.00  8.22    -0.079 N 
HETATM   20  H14 BES A 501      31.260  -2.060  27.279  1.00  8.22     0.274 HD
HETATM   21  H15 BES A 501      30.397  -0.556  27.489  1.00  8.22     0.274 HD
HETATM   22  H6  BES A 501      32.136  -0.594  27.646  1.00  8.22     0.274 HD
ENDBRANCH   1  19
TORSDOF 8
ENDMDL
MODEL 7
REMARK VINA RESULT:    -5.886      2.830      3.509
REMARK INTER + INTRA:          -9.002
REMARK INTER:                  -8.588
REMARK INTRA:                  -0.415
REMARK UNBOUND:                -0.535
REMARK  8 active torsions:
REMARK  status: ('A' for Active; 'I' for Inactive)
REMARK    1  A    between atoms: C70_1  and  C1_2 
REMARK    2  A    between atoms: C70_1  and  N12_19 
REMARK    3  A    between atoms: C1_2  and  C2_3 
REMARK    4  A    between atoms: C2_3  and  C3_4 
REMARK       I    between atoms: C3_4  and  N1_6 
REMARK    5  A    between atoms: N1_6  and  C4_7 
REMARK    6  A    between atoms: C4_7  and  C13_8 
REMARK    7  A    between atoms: C4_7  and  C5_10 
REMARK    8  A    between atoms: C13_8  and  C7_9 
ROOT
HETATM    1  C70 BES A 501      20.286   3.518  31.077  1.00  6.08     0.230 C 
ENDROOT
BRANCH   1   2
HETATM    2  C1  BES A 501      21.257   3.176  30.114  1.00  6.71     0.036 C 
BRANCH   2   3
HETATM    3  C2  BES A 501      22.637   2.870  30.608  1.00  9.09     0.098 C 
BRANCH   3   4
HETATM    4  C3  BES A 501      23.511   2.530  29.435  1.00  8.29     0.198 C 
HETATM    5  O3  BES A 501      23.135   2.883  28.339  1.00  7.85    -0.280 OA
HETATM    6  N1  BES A 501      24.766   1.801  29.664  1.00  8.97    -0.248 NA
HETATM    7  H7  BES A 501      24.485   0.893  30.158  1.00  8.27     0.131 HD
BRANCH   6   8
HETATM    8  C4  BES A 501      25.698   1.401  28.610  1.00 10.85     0.169 C 
BRANCH   8   9
HETATM    9  C13 BES A 501      27.078   1.136  29.218  1.00  8.22     0.089 C 
BRANCH   9  10
HETATM   10  C7  BES A 501      28.143   1.017  28.111  1.00 11.21     0.029 A 
HETATM   11  C21 BES A 501      28.824  -0.284  27.646  1.00  0.00     0.143 A 
HETATM   12  N22 BES A 501      29.815   0.074  26.523  1.00  0.00    -0.254 N 
HETATM   13  C23 BES A 501      29.747   1.595  26.294  1.00  0.00     0.207 A 
HETATM   14  N24 BES A 501      28.713   2.179  27.276  1.00  0.00    -0.353 N 
HETATM   15  H13 BES A 501      28.440   3.209  27.363  1.00  8.23     0.166 HD
ENDBRANCH   9  10
ENDBRANCH   8   9
BRANCH   8  16
HETATM   16  C5  BES A 501      25.187   0.128  28.018  1.00 10.09     0.192 C 
HETATM   17  O1  BES A 501      25.444  -0.967  28.591  1.00  5.58    -0.647 OA
HETATM   18  O4  BES A 501      24.468   0.219  26.975  1.00  5.29    -0.647 OA
ENDBRANCH   8  16
ENDBRANCH   6   8
ENDBRANCH   3   4
ENDBRANCH   2   3
ENDBRANCH   1   2
BRANCH   1  19
HETATM   19  N12 BES A 501      20.261   2.462  32.170  1.00  8.22    -0.079 N 
HETATM   20  H14 BES A 501      19.284   2.419  32.603  1.00  8.22     0.274 HD
HETATM   21  H15 BES A 501      20.975   2.713  32.926  1.00  8.22     0.274 HD
HETATM   22  H6  BES A 501      20.507   1.509  31.751  1.00  8.22     0.274 HD
ENDBRANCH   1  19
TORSDOF 8
ENDMDL
MODEL 8
REMARK VINA RESULT:    -5.826      3.087      6.570
REMARK INTER + INTRA:          -8.915
REMARK INTER:                  -8.154
REMARK INTRA:                  -0.761
REMARK UNBOUND:                -0.535
REMARK  8 active torsions:
REMARK  status: ('A' for Active; 'I' for Inactive)
REMARK    1  A    between atoms: C70_1  and  C1_2 
REMARK    2  A    between atoms: C70_1  and  N12_19 
REMARK    3  A    between atoms: C1_2  and  C2_3 
REMARK    4  A    between atoms: C2_3  and  C3_4 
REMARK       I    between atoms: C3_4  and  N1_6 
REMARK    5  A    between atoms: N1_6  and  C4_7 
REMARK    6  A    between atoms: C4_7  and  C13_8 
REMARK    7  A    between atoms: C4_7  and  C5_10 
REMARK    8  A    between atoms: C13_8  and  C7_9 
ROOT
HETATM    1  C70 BES A 501      31.480  -3.968  30.021  1.00  6.08     0.230 C 
ENDROOT
BRANCH   1   2
HETATM    2  C1  BES A 501      31.898  -3.384  28.808  1.00  6.71     0.036 C 
BRANCH   2   3
HETATM    3  C2  BES A 501      31.850  -1.891  28.711  1.00  9.09     0.098 C 
BRANCH   3   4
HETATM    4  C3  BES A 501      30.654  -1.494  27.895  1.00  8.29     0.198 C 
HETATM    5  O3  BES A 501      29.561  -1.674  28.383  1.00  7.85    -0.280 OA
HETATM    6  N1  BES A 501      30.858  -0.908  26.562  1.00  8.97    -0.248 NA
HETATM    7  H7  BES A 501      31.423  -1.633  26.013  1.00  8.27     0.131 HD
BRANCH   6   8
HETATM    8  C4  BES A 501      29.781  -0.490  25.665  1.00 10.85     0.169 C 
BRANCH   8   9
HETATM    9  C13 BES A 501      29.427   0.976  25.936  1.00  8.22     0.089 C 
BRANCH   9  10
HETATM   10  C7  BES A 501      28.062   1.081  26.643  1.00 11.21     0.029 A 
HETATM   11  C21 BES A 501      27.838   1.366  28.140  1.00  0.00     0.143 A 
HETATM   12  N22 BES A 501      26.320   1.380  28.399  1.00  0.00    -0.254 N 
HETATM   13  C23 BES A 501      25.606   1.104  27.062  1.00  0.00     0.207 A 
HETATM   14  N24 BES A 501      26.683   0.919  25.977  1.00  0.00    -0.353 N 
HETATM   15  H13 BES A 501      26.505   0.714  24.942  1.00  8.23     0.166 HD
ENDBRANCH   9  10
ENDBRANCH   8   9
BRANCH   8  16
HETATM   16  C5  BES A 501      30.292  -0.604  24.266  1.00 10.09     0.192 C 
HETATM   17  O1  BES A 501      30.785  -1.698  23.876  1.00  5.58    -0.647 OA
HETATM   18  O4  BES A 501      30.160   0.410  23.514  1.00  5.29    -0.647 OA
ENDBRANCH   8  16
ENDBRANCH   6   8
ENDBRANCH   3   4
ENDBRANCH   2   3
ENDBRANCH   1   2
BRANCH   1  19
HETATM   19  N12 BES A 501      29.997  -4.298  29.941  1.00  8.22    -0.079 N 
HETATM   20  H14 BES A 501      29.632  -4.059  28.964  1.00  8.22     0.274 HD
HETATM   21  H15 BES A 501      29.465  -3.726  30.670  1.00  8.22     0.274 HD
HETATM   22  H6  BES A 501      29.854  -5.341  30.130  1.00  8.22     0.274 HD
ENDBRANCH   1  19
TORSDOF 8
ENDMDL
MODEL 9
REMARK VINA RESULT:    -5.728      2.293      6.988
REMARK INTER + INTRA:          -8.775
REMARK INTER:                  -8.521
REMARK INTRA:                  -0.254
REMARK UNBOUND:                -0.535
REMARK  8 active torsions:
REMARK  status: ('A' for Active; 'I' for Inactive)
REMARK    1  A    between atoms: C70_1  and  C1_2 
REMARK    2  A    between atoms: C70_1  and  N12_19 
REMARK    3  A    between atoms: C1_2  and  C2_3 
REMARK    4  A    between atoms: C2_3  and  C3_4 
REMARK       I    between atoms: C3_4  and  N1_6 
REMARK    5  A    between atoms: N1_6  and  C4_7 
REMARK    6  A    between atoms: C4_7  and  C13_8 
REMARK    7  A    between atoms: C4_7  and  C5_10 
REMARK    8  A    between atoms: C13_8  and  C7_9 
ROOT
HETATM    1  C70 BES A 501      30.323   0.164  24.242  1.00  6.08     0.230 C 
ENDROOT
BRANCH   1   2
HETATM    2  C1  BES A 501      29.122  -0.113  24.924  1.00  6.71     0.036 C 
BRANCH   2   3
HETATM    3  C2  BES A 501      29.157  -0.077  26.420  1.00  9.09     0.098 C 
BRANCH   3   4
HETATM    4  C3  BES A 501      28.089   0.859  26.911  1.00  8.29     0.198 C 
HETATM    5  O3  BES A 501      28.257   2.043  26.725  1.00  7.85    -0.280 OA
HETATM    6  N1  BES A 501      26.904   0.305  27.581  1.00  8.97    -0.248 NA
HETATM    7  H7  BES A 501      27.279  -0.255  28.413  1.00  8.27     0.131 HD
BRANCH   6   8
HETATM    8  C4  BES A 501      25.801   1.106  28.113  1.00 10.85     0.169 C 
BRANCH   8   9
HETATM    9  C13 BES A 501      24.500   0.301  28.039  1.00  8.22     0.089 C 
BRANCH   9  10
HETATM   10  C7  BES A 501      23.337   1.196  27.570  1.00 11.21     0.029 A 
HETATM   11  C21 BES A 501      23.406   2.716  27.329  1.00  0.00     0.143 A 
HETATM   12  N22 BES A 501      22.014   3.187  26.869  1.00  0.00    -0.254 N 
HETATM   13  C23 BES A 501      21.085   1.960  26.827  1.00  0.00     0.207 A 
HETATM   14  N24 BES A 501      21.903   0.728  27.260  1.00  0.00    -0.353 N 
HETATM   15  H13 BES A 501      21.540  -0.275  27.332  1.00  8.23     0.166 HD
ENDBRANCH   9  10
ENDBRANCH   8   9
BRANCH   8  16
HETATM   16  C5  BES A 501      26.104   1.388  29.548  1.00 10.09     0.192 C 
HETATM   17  O1  BES A 501      27.296   1.306  29.957  1.00  5.58    -0.647 OA
HETATM   18  O4  BES A 501      25.137   1.747  30.288  1.00  5.29    -0.647 OA
ENDBRANCH   8  16
ENDBRANCH   6   8
ENDBRANCH   3   4
ENDBRANCH   2   3
ENDBRANCH   1   2
BRANCH   1  19
HETATM   19  N12 BES A 501      31.193  -1.083  24.218  1.00  8.22    -0.079 N 
HETATM   20  H14 BES A 501      31.467  -1.308  23.209  1.00  8.22     0.274 HD
HETATM   21  H15 BES A 501      30.649  -1.906  24.631  1.00  8.22     0.274 HD
HETATM   22  H6  BES A 501      32.076  -0.913  24.797  1.00  8.22     0.274 HD
ENDBRANCH   1  19
TORSDOF 8
ENDMDL
