MODEL 1
REMARK VINA RESULT:    -8.737      0.000      0.000
REMARK INTER + INTRA:          -9.758
REMARK INTER:                  -9.758
REMARK INTRA:                   0.000
REMARK UNBOUND:                 0.000
REMARK  Name = Brazilin.pdb
REMARK  4 active torsions:
REMARK  status: ('A' for Active; 'I' for Inactive)
REMARK    1  A    between atoms: C3_3  and  O3_6
REMARK    2  A    between atoms: C4_4  and  O4_7
REMARK    3  A    between atoms: C10_10  and  O1_16
REMARK    4  A    between atoms: C19_19  and  O1_21
REMARK                            x       y       z     vdW  Elec       q    Type
REMARK                         _______ _______ _______ _____ _____    ______ ____
ROOT
ATOM      1 3C45 GLC     4     -38.412  15.124 -26.124  0.00  0.00    +0.000 A 
ATOM      2  C2  GLC     4     -39.438  14.210 -26.638  0.00  0.00    +0.000 A 
ATOM      3  C3  GLC     4     -39.024  13.061 -27.180  0.00  0.00    +0.000 A 
ATOM      4  C4  GLC     4     -37.593  12.734 -27.235  0.00  0.00    +0.000 A 
ATOM      5  C5  GLC     4     -36.668  13.571 -26.747  0.00  0.00    +0.000 A 
ATOM      6 3C45 GLC     4     -37.119  14.826 -26.179  0.00  0.00    +0.000 A 
ATOM      7  C9  GLC     4     -36.311  16.001 -25.635  0.00  0.00    +0.000 C 
ATOM      8  C10 GLC     4     -37.320  16.534 -24.667  0.00  0.00    +0.000 C 
ATOM      9  C11 GLC     4     -38.598  16.509 -25.544  0.00  0.00    +0.000 C 
ATOM     10  C12 GLC     4     -36.886  17.866 -24.064  0.00  0.00    +0.000 C 
ATOM     11  O13 GLC     4     -35.645  17.630 -23.393  0.00  0.00    +0.000 OA
ATOM     12  C14 GLC     4     -34.713  16.736 -23.817  0.00  0.00    +0.000 A 
ATOM     13  C15 GLC     4     -34.976  15.852 -24.967  0.00  0.00    +0.000 A 
ATOM     14  C17 GLC     4     -34.034  15.002 -25.366  0.00  0.00    +0.000 A 
ATOM     15  C18 GLC     4     -32.767  14.949 -24.648  0.00  0.00    +0.000 A 
ATOM     16  C19 GLC     4     -32.549  15.750 -23.606  0.00  0.00    +0.000 A 
ATOM     17  C20 GLC     4     -33.554  16.678 -23.175  0.00  0.00    +0.000 A 
ENDROOT
BRANCH   3  18
ATOM     18  O3  GLC     4     -39.909  12.139 -27.720  0.00  0.00    +0.000 OA
ATOM     19  H3  GLC     4     -39.805  11.226 -27.319  0.00  0.00    +0.000 HD
ENDBRANCH   3  18
BRANCH   4  20
ATOM     20  O4  GLC     4     -37.232  11.543 -27.817  0.00  0.00    +0.000 OA
ATOM     21  H4  GLC     4     -37.507  10.770 -27.212  0.00  0.00    +0.000 HD
ENDBRANCH   4  20
BRANCH   8  22
ATOM     22  O1  GLC     4     -37.460  15.610 -23.572  0.00  0.00    +0.000 OA
ATOM     23  H10 GLC     4     -37.914  14.789 -23.858  0.00  0.00    +0.000 HD
ENDBRANCH   8  22
BRANCH  16  24
ATOM     24  O1  GLC     4     -31.369  15.699 -22.943  0.00  0.00    +0.000 OA
ATOM     25  H14 GLC     4     -30.679  15.889 -23.569  0.00  0.00    +0.000 HD
ENDBRANCH  16  24
TORSDOF 4
ENDMDL
MODEL 2
REMARK VINA RESULT:    -8.161      2.369      5.920
REMARK INTER + INTRA:          -9.115
REMARK INTER:                  -9.115
REMARK INTRA:                   0.000
REMARK UNBOUND:                 0.000
REMARK  Name = Brazilin.pdb
REMARK  4 active torsions:
REMARK  status: ('A' for Active; 'I' for Inactive)
REMARK    1  A    between atoms: C3_3  and  O3_6
REMARK    2  A    between atoms: C4_4  and  O4_7
REMARK    3  A    between atoms: C10_10  and  O1_16
REMARK    4  A    between atoms: C19_19  and  O1_21
REMARK                            x       y       z     vdW  Elec       q    Type
REMARK                         _______ _______ _______ _____ _____    ______ ____
ROOT
ATOM      1 3C45 GLC     4     -34.701  15.325 -24.708  0.00  0.00    +0.000 A 
ATOM      2  C2  GLC     4     -33.524  14.685 -24.110  0.00  0.00    +0.000 A 
ATOM      3  C3  GLC     4     -32.481  15.467 -23.814  0.00  0.00    +0.000 A 
ATOM      4  C4  GLC     4     -32.536  16.913 -24.069  0.00  0.00    +0.000 A 
ATOM      5  C5  GLC     4     -33.624  17.486 -24.599  0.00  0.00    +0.000 A 
ATOM      6 3C45 GLC     4     -34.746  16.633 -24.939  0.00  0.00    +0.000 A 
ATOM      7  C9  GLC     4     -36.064  16.976 -25.627  0.00  0.00    +0.000 C 
ATOM      8  C10 GLC     4     -36.909  15.891 -25.037  0.00  0.00    +0.000 C 
ATOM      9  C11 GLC     4     -35.969  14.670 -25.209  0.00  0.00    +0.000 C 
ATOM     10  C12 GLC     4     -38.292  15.832 -25.677  0.00  0.00    +0.000 C 
ATOM     11  O13 GLC     4     -38.906  17.105 -25.452  0.00  0.00    +0.000 OA
ATOM     12  C14 GLC     4     -38.222  18.278 -25.412  0.00  0.00    +0.000 A 
ATOM     13  C15 GLC     4     -36.749  18.303 -25.493  0.00  0.00    +0.000 A 
ATOM     14  C17 GLC     4     -36.113  19.471 -25.469  0.00  0.00    +0.000 A 
ATOM     15  C18 GLC     4     -36.883  20.702 -25.346  0.00  0.00    +0.000 A 
ATOM     16  C19 GLC     4     -38.212  20.662 -25.267  0.00  0.00    +0.000 A 
ATOM     17  C20 GLC     4     -38.908  19.407 -25.303  0.00  0.00    +0.000 A 
ENDROOT
BRANCH   3  18
ATOM     18  O3  GLC     4     -31.310  14.960 -23.272  0.00  0.00    +0.000 OA
ATOM     19  H3  GLC     4     -31.475  14.197 -22.643  0.00  0.00    +0.000 HD
ENDBRANCH   3  18
BRANCH   4  20
ATOM     20  O4  GLC     4     -31.425  17.659 -23.755  0.00  0.00    +0.000 OA
ATOM     21  H4  GLC     4     -31.543  18.609 -24.106  0.00  0.00    +0.000 HD
ENDBRANCH   4  20
BRANCH   8  22
ATOM     22  O1  GLC     4     -37.113  16.158 -23.636  0.00  0.00    +0.000 OA
ATOM     23  H10 GLC     4     -36.258  16.223 -23.161  0.00  0.00    +0.000 HD
ENDBRANCH   8  22
BRANCH  16  24
ATOM     24  O1  GLC     4     -38.923  21.808 -25.155  0.00  0.00    +0.000 OA
ATOM     25  H14 GLC     4     -38.366  22.521 -25.448  0.00  0.00    +0.000 HD
ENDBRANCH  16  24
TORSDOF 4
ENDMDL
MODEL 3
REMARK VINA RESULT:    -7.446      2.107      4.262
REMARK INTER + INTRA:          -8.316
REMARK INTER:                  -8.316
REMARK INTRA:                   0.000
REMARK UNBOUND:                 0.000
REMARK  Name = Brazilin.pdb
REMARK  4 active torsions:
REMARK  status: ('A' for Active; 'I' for Inactive)
REMARK    1  A    between atoms: C3_3  and  O3_6
REMARK    2  A    between atoms: C4_4  and  O4_7
REMARK    3  A    between atoms: C10_10  and  O1_16
REMARK    4  A    between atoms: C19_19  and  O1_21
REMARK                            x       y       z     vdW  Elec       q    Type
REMARK                         _______ _______ _______ _____ _____    ______ ____
ROOT
ATOM      1 3C45 GLC     4     -36.074  14.473 -26.324  0.00  0.00    +0.000 A 
ATOM      2  C2  GLC     4     -36.339  13.191 -26.986  0.00  0.00    +0.000 A 
ATOM      3  C3  GLC     4     -37.616  12.861 -27.201  0.00  0.00    +0.000 A 
ATOM      4  C4  GLC     4     -38.699  13.769 -26.799  0.00  0.00    +0.000 A 
ATOM      5  C5  GLC     4     -38.442  14.944 -26.210  0.00  0.00    +0.000 A 
ATOM      6 3C45 GLC     4     -37.056  15.289 -25.959  0.00  0.00    +0.000 A 
ATOM      7  C9  GLC     4     -36.463  16.496 -25.237  0.00  0.00    +0.000 C 
ATOM      8  C10 GLC     4     -35.140  16.542 -25.935  0.00  0.00    +0.000 C 
ATOM      9  C11 GLC     4     -34.741  15.044 -25.891  0.00  0.00    +0.000 C 
ATOM     10  C12 GLC     4     -34.195  17.558 -25.302  0.00  0.00    +0.000 C 
ATOM     11  O13 GLC     4     -34.838  18.832 -25.393  0.00  0.00    +0.000 OA
ATOM     12  C14 GLC     4     -36.183  19.009 -25.313  0.00  0.00    +0.000 A 
ATOM     13  C15 GLC     4     -37.098  17.855 -25.232  0.00  0.00    +0.000 A 
ATOM     14  C17 GLC     4     -38.408  18.065 -25.137  0.00  0.00    +0.000 A 
ATOM     15  C18 GLC     4     -38.914  19.431 -25.131  0.00  0.00    +0.000 A 
ATOM     16  C19 GLC     4     -38.075  20.462 -25.212  0.00  0.00    +0.000 A 
ATOM     17  C20 GLC     4     -36.660  20.246 -25.304  0.00  0.00    +0.000 A 
ENDROOT
BRANCH   3  18
ATOM     18  O3  GLC     4     -37.979  11.661 -27.794  0.00  0.00    +0.000 OA
ATOM     19  H3  GLC     4     -38.580  11.790 -28.586  0.00  0.00    +0.000 HD
ENDBRANCH   3  18
BRANCH   4  20
ATOM     20  O4  GLC     4     -39.991  13.365 -27.035  0.00  0.00    +0.000 OA
ATOM     21  H4  GLC     4     -40.223  12.584 -26.421  0.00  0.00    +0.000 HD
ENDBRANCH   4  20
BRANCH   8  22
ATOM     22  O1  GLC     4     -35.338  16.956 -27.300  0.00  0.00    +0.000 OA
ATOM     23  H10 GLC     4     -35.010  16.276 -27.926  0.00  0.00    +0.000 HD
ENDBRANCH   8  22
BRANCH  16  24
ATOM     24  O1  GLC     4     -38.551  21.730 -25.204  0.00  0.00    +0.000 OA
ATOM     25  H14 GLC     4     -37.803  22.317 -25.228  0.00  0.00    +0.000 HD
ENDBRANCH  16  24
TORSDOF 4
ENDMDL
MODEL 4
REMARK VINA RESULT:    -7.262      2.210      4.665
REMARK INTER + INTRA:          -8.111
REMARK INTER:                  -8.111
REMARK INTRA:                   0.000
REMARK UNBOUND:                 0.000
REMARK  Name = Brazilin.pdb
REMARK  4 active torsions:
REMARK  status: ('A' for Active; 'I' for Inactive)
REMARK    1  A    between atoms: C3_3  and  O3_6
REMARK    2  A    between atoms: C4_4  and  O4_7
REMARK    3  A    between atoms: C10_10  and  O1_16
REMARK    4  A    between atoms: C19_19  and  O1_21
REMARK                            x       y       z     vdW  Elec       q    Type
REMARK                         _______ _______ _______ _____ _____    ______ ____
ROOT
ATOM      1 3C45 GLC     4     -38.242  17.559 -25.354  0.00  0.00    +0.000 A 
ATOM      2  C2  GLC     4     -39.078  18.698 -25.748  0.00  0.00    +0.000 A 
ATOM      3  C3  GLC     4     -38.784  19.891 -25.222  0.00  0.00    +0.000 A 
ATOM      4  C4  GLC     4     -37.650  20.039 -24.299  0.00  0.00    +0.000 A 
ATOM      5  C5  GLC     4     -36.885  18.993 -23.960  0.00  0.00    +0.000 A 
ATOM      6 3C45 GLC     4     -37.221  17.697 -24.516  0.00  0.00    +0.000 A 
ATOM      7  C9  GLC     4     -36.601  16.328 -24.251  0.00  0.00    +0.000 C 
ATOM      8  C10 GLC     4     -36.924  15.683 -25.562  0.00  0.00    +0.000 C 
ATOM      9  C11 GLC     4     -38.406  16.103 -25.731  0.00  0.00    +0.000 C 
ATOM     10  C12 GLC     4     -36.592  14.194 -25.564  0.00  0.00    +0.000 C 
ATOM     11  O13 GLC     4     -35.191  14.083 -25.298  0.00  0.00    +0.000 OA
ATOM     12  C14 GLC     4     -34.503  14.935 -24.492  0.00  0.00    +0.000 A 
ATOM     13  C15 GLC     4     -35.155  16.123 -23.911  0.00  0.00    +0.000 A 
ATOM     14  C17 GLC     4     -34.457  16.925 -23.112  0.00  0.00    +0.000 A 
ATOM     15  C18 GLC     4     -33.057  16.624 -22.841  0.00  0.00    +0.000 A 
ATOM     16  C19 GLC     4     -32.482  15.550 -23.380  0.00  0.00    +0.000 A 
ATOM     17  C20 GLC     4     -33.230  14.672 -24.234  0.00  0.00    +0.000 A 
ENDROOT
BRANCH   3  18
ATOM     18  O3  GLC     4     -39.526  21.027 -25.506  0.00  0.00    +0.000 OA
ATOM     19  H3  GLC     4     -40.428  21.016 -25.069  0.00  0.00    +0.000 HD
ENDBRANCH   3  18
BRANCH   4  20
ATOM     20  O4  GLC     4     -37.408  21.289 -23.781  0.00  0.00    +0.000 OA
ATOM     21  H4  GLC     4     -38.117  21.512 -23.083  0.00  0.00    +0.000 HD
ENDBRANCH   4  20
BRANCH   8  22
ATOM     22  O1  GLC     4     -36.124  16.285 -26.597  0.00  0.00    +0.000 OA
ATOM     23  H10 GLC     4     -36.679  16.807 -27.214  0.00  0.00    +0.000 HD
ENDBRANCH   8  22
BRANCH  16  24
ATOM     24  O1  GLC     4     -31.182  15.272 -23.124  0.00  0.00    +0.000 OA
ATOM     25  H14 GLC     4     -30.672  15.576 -23.866  0.00  0.00    +0.000 HD
ENDBRANCH  16  24
TORSDOF 4
ENDMDL
MODEL 5
REMARK VINA RESULT:    -6.990      2.354      5.793
REMARK INTER + INTRA:          -7.808
REMARK INTER:                  -7.808
REMARK INTRA:                   0.000
REMARK UNBOUND:                 0.000
REMARK  Name = Brazilin.pdb
REMARK  4 active torsions:
REMARK  status: ('A' for Active; 'I' for Inactive)
REMARK    1  A    between atoms: C3_3  and  O3_6
REMARK    2  A    between atoms: C4_4  and  O4_7
REMARK    3  A    between atoms: C10_10  and  O1_16
REMARK    4  A    between atoms: C19_19  and  O1_21
REMARK                            x       y       z     vdW  Elec       q    Type
REMARK                         _______ _______ _______ _____ _____    ______ ____
ROOT
ATOM      1 3C45 GLC     4     -36.227  18.611 -25.471  0.00  0.00    +0.000 A 
ATOM      2  C2  GLC     4     -36.454  19.980 -24.995  0.00  0.00    +0.000 A 
ATOM      3  C3  GLC     4     -37.713  20.340 -24.728  0.00  0.00    +0.000 A 
ATOM      4  C4  GLC     4     -38.814  19.381 -24.894  0.00  0.00    +0.000 A 
ATOM      5  C5  GLC     4     -38.590  18.129 -25.314  0.00  0.00    +0.000 A 
ATOM      6 3C45 GLC     4     -37.226  17.748 -25.623  0.00  0.00    +0.000 A 
ATOM      7  C9  GLC     4     -36.679  16.445 -26.197  0.00  0.00    +0.000 C 
ATOM      8  C10 GLC     4     -35.303  16.507 -25.612  0.00  0.00    +0.000 C 
ATOM      9  C11 GLC     4     -34.928  17.980 -25.919  0.00  0.00    +0.000 C 
ATOM     10  C12 GLC     4     -34.400  15.405 -26.157  0.00  0.00    +0.000 C 
ATOM     11  O13 GLC     4     -35.017  14.160 -25.818  0.00  0.00    +0.000 OA
ATOM     12  C14 GLC     4     -36.362  13.973 -25.758  0.00  0.00    +0.000 A 
ATOM     13  C15 GLC     4     -37.294  15.102 -25.939  0.00  0.00    +0.000 A 
ATOM     14  C17 GLC     4     -38.605  14.880 -25.892  0.00  0.00    +0.000 A 
ATOM     15  C18 GLC     4     -39.093  13.529 -25.645  0.00  0.00    +0.000 A 
ATOM     16  C19 GLC     4     -38.238  12.523 -25.477  0.00  0.00    +0.000 A 
ATOM     17  C20 GLC     4     -36.822  12.750 -25.537  0.00  0.00    +0.000 A 
ENDROOT
BRANCH   3  18
ATOM     18  O3  GLC     4     -38.041  21.617 -24.299  0.00  0.00    +0.000 OA
ATOM     19  H3  GLC     4     -38.438  22.178 -25.029  0.00  0.00    +0.000 HD
ENDBRANCH   3  18
BRANCH   4  20
ATOM     20  O4  GLC     4     -40.087  19.816 -24.616  0.00  0.00    +0.000 OA
ATOM     21  H4  GLC     4     -40.352  19.518 -23.677  0.00  0.00    +0.000 HD
ENDBRANCH   4  20
BRANCH   8  22
ATOM     22  O1  GLC     4     -35.383  16.309 -24.188  0.00  0.00    +0.000 OA
ATOM     23  H10 GLC     4     -34.538  16.548 -23.751  0.00  0.00    +0.000 HD
ENDBRANCH   8  22
BRANCH  16  24
ATOM     24  O1  GLC     4     -38.696  11.269 -25.250  0.00  0.00    +0.000 OA
ATOM     25  H14 GLC     4     -38.006  10.662 -25.494  0.00  0.00    +0.000 HD
ENDBRANCH  16  24
TORSDOF 4
ENDMDL
MODEL 6
REMARK VINA RESULT:    -6.590      2.157      6.511
REMARK INTER + INTRA:          -7.360
REMARK INTER:                  -7.360
REMARK INTRA:                   0.000
REMARK UNBOUND:                 0.000
REMARK  Name = Brazilin.pdb
REMARK  4 active torsions:
REMARK  status: ('A' for Active; 'I' for Inactive)
REMARK    1  A    between atoms: C3_3  and  O3_6
REMARK    2  A    between atoms: C4_4  and  O4_7
REMARK    3  A    between atoms: C10_10  and  O1_16
REMARK    4  A    between atoms: C19_19  and  O1_21
REMARK                            x       y       z     vdW  Elec       q    Type
REMARK                         _______ _______ _______ _____ _____    ______ ____
ROOT
ATOM      1 3C45 GLC     4     -33.231  15.691 -24.192  0.00  0.00    +0.000 A 
ATOM      2  C2  GLC     4     -32.085  15.453 -23.308  0.00  0.00    +0.000 A 
ATOM      3  C3  GLC     4     -31.963  16.237 -22.233  0.00  0.00    +0.000 A 
ATOM      4  C4  GLC     4     -32.958  17.282 -21.954  0.00  0.00    +0.000 A 
ATOM      5  C5  GLC     4     -34.009  17.477 -22.761  0.00  0.00    +0.000 A 
ATOM      6 3C45 GLC     4     -34.127  16.638 -23.938  0.00  0.00    +0.000 A 
ATOM      7  C9  GLC     4     -35.146  16.681 -25.072  0.00  0.00    +0.000 C 
ATOM      8  C10 GLC     4     -35.091  15.241 -25.474  0.00  0.00    +0.000 C 
ATOM      9  C11 GLC     4     -33.558  15.011 -25.504  0.00  0.00    +0.000 C 
ATOM     10  C12 GLC     4     -35.885  14.971 -26.747  0.00  0.00    +0.000 C 
ATOM     11  O13 GLC     4     -37.238  15.350 -26.478  0.00  0.00    +0.000 OA
ATOM     12  C14 GLC     4     -37.588  16.377 -25.660  0.00  0.00    +0.000 A 
ATOM     13  C15 GLC     4     -36.570  17.118 -24.893  0.00  0.00    +0.000 A 
ATOM     14  C17 GLC     4     -36.946  18.130 -24.116  0.00  0.00    +0.000 A 
ATOM     15  C18 GLC     4     -38.359  18.474 -24.024  0.00  0.00    +0.000 A 
ATOM     16  C19 GLC     4     -39.267  17.790 -24.719  0.00  0.00    +0.000 A 
ATOM     17  C20 GLC     4     -38.869  16.705 -25.569  0.00  0.00    +0.000 A 
ENDROOT
BRANCH   3  18
ATOM     18  O3  GLC     4     -30.903  16.115 -21.347  0.00  0.00    +0.000 OA
ATOM     19  H3  GLC     4     -30.104  16.652 -21.627  0.00  0.00    +0.000 HD
ENDBRANCH   3  18
BRANCH   4  20
ATOM     20  O4  GLC     4     -32.767  18.064 -20.840  0.00  0.00    +0.000 OA
ATOM     21  H4  GLC     4     -31.789  18.348 -20.786  0.00  0.00    +0.000 HD
ENDBRANCH   4  20
BRANCH   8  22
ATOM     22  O1  GLC     4     -35.686  14.437 -24.438  0.00  0.00    +0.000 OA
ATOM     23  H10 GLC     4     -35.007  14.114 -23.808  0.00  0.00    +0.000 HD
ENDBRANCH   8  22
BRANCH  16  24
ATOM     24  O1  GLC     4     -40.578  18.116 -24.633  0.00  0.00    +0.000 OA
ATOM     25  H14 GLC     4     -40.716  18.895 -25.161  0.00  0.00    +0.000 HD
ENDBRANCH  16  24
TORSDOF 4
ENDMDL
