MODEL 1
REMARK VINA RESULT:    -1.911      0.000      0.000
REMARK INTER + INTRA:          -6.853
REMARK INTER:                  -3.642
REMARK INTRA:                  -3.210
REMARK UNBOUND:                -3.210
REMARK  7 active torsions:
REMARK  status: ('A' for Active; 'I' for Inactive)
REMARK    1  A    between atoms: N2_1  and  C1_2 
REMARK    2  A    between atoms: C1_2  and  C2_3 
REMARK    3  A    between atoms: C2_3  and  C3_4 
REMARK       I    between atoms: C3_4  and  N1_6 
REMARK    4  A    between atoms: N1_6  and  C4_7 
REMARK    5  A    between atoms: C4_7  and  C13_8 
REMARK    6  A    between atoms: C4_7  and  C5_10 
REMARK    7  A    between atoms: C13_8  and  C7_9 
ROOT
HETATM    1  N2  BES   501      42.309  16.775 193.514  1.00  0.00    -0.079 N 
HETATM    2  H1  BES   501      42.618  16.124 194.306  1.00  0.00     0.274 HD
HETATM    3  H2  BES   501      43.082  17.488 193.318  1.00  0.00     0.274 HD
HETATM    4  H1  BES   501      42.124  16.198 192.632  1.00  0.00     0.274 HD
ENDROOT
BRANCH   1   5
HETATM    5  C1  BES   501      41.075  17.481 193.910  1.00  0.00     0.238 C 
BRANCH   5   6
HETATM    6  C2  BES   501      40.763  17.353 195.369  1.00  0.00     0.123 C 
BRANCH   6   7
HETATM    7  C3  BES   501      41.677  16.328 195.976  1.00  0.00     0.199 C 
HETATM    8  O3  BES   501      42.578  16.730 196.678  1.00  0.00    -0.280 OA
HETATM    9  N1  BES   501      41.440  14.904 195.699  1.00  0.00    -0.248 NA
HETATM   10  H7  BES   501      41.475  14.808 194.633  1.00  0.00     0.131 HD
BRANCH   9  11
HETATM   11  C4  BES   501      42.260  13.810 196.218  1.00  0.00     0.169 C 
BRANCH  11  12
HETATM   12  C13 BES   501      41.436  12.519 196.250  1.00  0.00     0.089 C 
BRANCH  12  13
HETATM   13  C7  BES   501      41.267  12.022 197.698  1.00  0.00     0.031 A 
HETATM   14  C21 BES   501      40.126  12.405 198.660  1.00  0.00     0.143 A 
HETATM   15  N22 BES   501      40.364  11.676 199.994  1.00  0.00    -0.254 N 
HETATM   16  C23 BES   501      41.652  10.842 199.859  1.00  0.00     0.209 A 
HETATM   17  N24 BES   501      42.209  11.056 198.439  1.00  0.00    -0.348 N 
HETATM   18  C1  BES   501      43.470  10.425 197.870  1.00  0.00     0.157 C 
ENDBRANCH  12  13
ENDBRANCH  11  12
BRANCH  11  19
HETATM   19  C5  BES   501      43.404  13.621 195.276  1.00  0.00     0.192 C 
HETATM   20  O1  BES   501      44.441  13.021 195.673  1.00  0.00    -0.647 OA
HETATM   21  O4  BES   501      43.254  14.043 194.087  1.00  0.00    -0.647 OA
ENDBRANCH  11  19
ENDBRANCH   9  11
ENDBRANCH   6   7
ENDBRANCH   5   6
ENDBRANCH   1   5
TORSDOF 7
REMARK  10 active torsions:
REMARK  status: ('A' for Active; 'I' for Inactive)
REMARK    1  A    between atoms: N2_1  and  C1_2 
REMARK    2  A    between atoms: C1_2  and  C6_3 
REMARK    3  A    between atoms: C1_2  and  C2_10 
REMARK    4  A    between atoms: C6_3  and  C7_4 
REMARK    5  A    between atoms: C2_10  and  O2_11 
REMARK    6  A    between atoms: C2_10  and  C3_12 
REMARK       I    between atoms: C3_12  and  N1_14 
REMARK    7  A    between atoms: N1_14  and  C4_15 
REMARK    8  A    between atoms: C4_15  and  C13_16 
REMARK    9  A    between atoms: C4_15  and  C5_20 
REMARK   10  A    between atoms: C13_16  and  C14_17 
ROOT
HETATM    1  N2  BES   501      44.880  10.250 194.456  1.00  0.00    -0.423 N 
HETATM    2  H1  BES   501      45.777   9.800 194.084  1.00  0.00     0.150 HD
HETATM    3  H2  BES   501      44.886  10.754 195.400  1.00  0.00     0.150 HD
ENDROOT
BRANCH   1   4
HETATM    4  C1  BES   501      43.667  10.175 193.690  1.00  0.00     0.116 C 
BRANCH   4   5
HETATM    5  C6  BES   501      43.171   8.778 193.305  1.00  0.00     0.066 C 
BRANCH   5   6
HETATM    6  C7  BES   501      41.832   8.392 193.957  1.00  0.00    -0.056 A 
HETATM    7  C8  BES   501      41.041   7.337 193.449  1.00  0.00     0.007 A 
HETATM    8  C9  BES   501      39.819   7.003 194.073  1.00  0.00     0.001 A 
HETATM    9  C10 BES   501      39.394   7.704 195.198  1.00  0.00     0.000 A 
HETATM   10  C11 BES   501      40.185   8.750 195.707  1.00  0.00     0.001 A 
HETATM   11  C12 BES   501      41.408   9.085 195.085  1.00  0.00     0.007 A 
ENDBRANCH   5   6
ENDBRANCH   4   5
BRANCH   4  12
HETATM   12  C2  BES   501      43.938  10.899 192.407  1.00  0.00     0.232 C 
BRANCH  12  13
HETATM   13  O2  BES   501      44.724  11.986 192.681  1.00  0.00    -0.384 OA
HETATM   14  H12 BES   501      44.271  12.851 192.298  1.00  0.00     0.210 HD
ENDBRANCH  12  13
BRANCH  12  15
HETATM   15  C3  BES   501      42.635  11.346 191.811  1.00  0.00     0.249 C 
HETATM   16  O3  BES   501      42.499  11.225 190.614  1.00  0.00    -0.271 OA
HETATM   17  N1  BES   501      41.598  11.901 192.691  1.00  0.00    -0.344 N 
HETATM   18  H23 BES   501      41.811  11.955 193.739  1.00  0.00     0.163 HD
BRANCH  17  19
HETATM   19  C4  BES   501      40.294  12.381 192.238  1.00  0.00     0.185 C 
BRANCH  19  20
HETATM   20  C13 BES   501      39.184  11.693 193.040  1.00  0.00     0.040 C 
BRANCH  20  21
HETATM   21  C14 BES   501      38.921  10.303 192.498  1.00  0.00    -0.020 C 
HETATM   22  C15 BES   501      37.519   9.857 192.917  1.00  0.00     0.009 C 
HETATM   23  C16 BES   501      39.047  10.272 191.007  1.00  0.00     0.009 C 
ENDBRANCH  20  21
ENDBRANCH  19  20
BRANCH  19  24
HETATM   24  C5  BES   501      40.237  13.848 192.511  1.00  0.00     0.196 C 
HETATM   25  O1  BES   501      39.579  14.269 193.502  1.00  0.00    -0.646 OA
HETATM   26  O4  BES   501      40.907  14.610 191.745  1.00  0.00    -0.646 OA
ENDBRANCH  19  24
ENDBRANCH  17  19
ENDBRANCH  12  15
ENDBRANCH   4  12
ENDBRANCH   1   4
TORSDOF 10
ENDMDL
MODEL 2
REMARK VINA RESULT:    -1.893      6.509      9.732
REMARK INTER + INTRA:          -6.818
REMARK INTER:                  -3.598
REMARK INTRA:                  -3.220
REMARK UNBOUND:                -3.210
REMARK  7 active torsions:
REMARK  status: ('A' for Active; 'I' for Inactive)
REMARK    1  A    between atoms: N2_1  and  C1_2 
REMARK    2  A    between atoms: C1_2  and  C2_3 
REMARK    3  A    between atoms: C2_3  and  C3_4 
REMARK       I    between atoms: C3_4  and  N1_6 
REMARK    4  A    between atoms: N1_6  and  C4_7 
REMARK    5  A    between atoms: C4_7  and  C13_8 
REMARK    6  A    between atoms: C4_7  and  C5_10 
REMARK    7  A    between atoms: C13_8  and  C7_9 
ROOT
HETATM    1  N2  BES   501      33.414  16.179 198.183  1.00  0.00    -0.079 N 
HETATM    2  H1  BES   501      32.611  16.774 197.800  1.00  0.00     0.274 HD
HETATM    3  H2  BES   501      33.655  15.410 197.478  1.00  0.00     0.274 HD
HETATM    4  H1  BES   501      34.272  16.798 198.341  1.00  0.00     0.274 HD
ENDROOT
BRANCH   1   5
HETATM    5  C1  BES   501      33.007  15.565 199.462  1.00  0.00     0.238 C 
BRANCH   5   6
HETATM    6  C2  BES   501      33.782  16.079 200.636  1.00  0.00     0.123 C 
BRANCH   6   7
HETATM    7  C3  BES   501      34.445  17.372 200.256  1.00  0.00     0.199 C 
HETATM    8  O3  BES   501      33.791  18.385 200.360  1.00  0.00    -0.280 OA
HETATM    9  N1  BES   501      35.837  17.351 199.787  1.00  0.00    -0.248 NA
HETATM   10  H7  BES   501      35.846  16.698 198.939  1.00  0.00     0.131 HD
BRANCH   9  11
HETATM   11  C4  BES   501      36.593  18.535 199.377  1.00  0.00     0.169 C 
BRANCH  11  12
HETATM   12  C13 BES   501      38.085  18.310 199.639  1.00  0.00     0.089 C 
BRANCH  12  13
HETATM   13  C7  BES   501      38.718  19.566 200.267  1.00  0.00     0.031 A 
HETATM   14  C21 BES   501      38.584  20.010 201.736  1.00  0.00     0.143 A 
HETATM   15  N22 BES   501      39.379  21.317 201.911  1.00  0.00    -0.254 N 
HETATM   16  C23 BES   501      40.005  21.681 200.552  1.00  0.00     0.209 A 
HETATM   17  N24 BES   501      39.596  20.598 199.536  1.00  0.00    -0.348 N 
HETATM   18  C1  BES   501      39.991  20.556 198.068  1.00  0.00     0.157 C 
ENDBRANCH  12  13
ENDBRANCH  11  12
BRANCH  11  19
HETATM   19  C5  BES   501      36.389  18.711 197.908  1.00  0.00     0.192 C 
HETATM   20  O1  BES   501      36.022  17.725 197.211  1.00  0.00    -0.647 OA
HETATM   21  O4  BES   501      36.555  19.878 197.432  1.00  0.00    -0.647 OA
ENDBRANCH  11  19
ENDBRANCH   9  11
ENDBRANCH   6   7
ENDBRANCH   5   6
ENDBRANCH   1   5
TORSDOF 7
REMARK  10 active torsions:
REMARK  status: ('A' for Active; 'I' for Inactive)
REMARK    1  A    between atoms: N2_1  and  C1_2 
REMARK    2  A    between atoms: C1_2  and  C6_3 
REMARK    3  A    between atoms: C1_2  and  C2_10 
REMARK    4  A    between atoms: C6_3  and  C7_4 
REMARK    5  A    between atoms: C2_10  and  O2_11 
REMARK    6  A    between atoms: C2_10  and  C3_12 
REMARK       I    between atoms: C3_12  and  N1_14 
REMARK    7  A    between atoms: N1_14  and  C4_15 
REMARK    8  A    between atoms: C4_15  and  C13_16 
REMARK    9  A    between atoms: C4_15  and  C5_20 
REMARK   10  A    between atoms: C13_16  and  C14_17 
ROOT
HETATM    1  N2  BES   501      38.197  15.695 196.794  1.00  0.00    -0.423 N 
HETATM    2  H1  BES   501      37.409  15.323 196.173  1.00  0.00     0.150 HD
HETATM    3  H2  BES   501      38.766  16.547 196.483  1.00  0.00     0.150 HD
ENDROOT
BRANCH   1   4
HETATM    4  C1  BES   501      38.492  15.052 198.045  1.00  0.00     0.116 C 
BRANCH   4   5
HETATM    5  C6  BES   501      39.681  14.087 198.069  1.00  0.00     0.066 C 
BRANCH   5   6
HETATM    6  C7  BES   501      40.817  14.523 199.009  1.00  0.00    -0.056 A 
HETATM    7  C8  BES   501      41.838  13.627 199.397  1.00  0.00     0.007 A 
HETATM    8  C9  BES   501      42.871  14.058 200.258  1.00  0.00     0.001 A 
HETATM    9  C10 BES   501      42.894  15.371 200.719  1.00  0.00     0.000 A 
HETATM   10  C11 BES   501      41.880  16.265 200.327  1.00  0.00     0.001 A 
HETATM   11  C12 BES   501      40.847  15.835 199.466  1.00  0.00     0.007 A 
ENDBRANCH   5   6
ENDBRANCH   4   5
BRANCH   4  12
HETATM   12  C2  BES   501      37.280  14.244 198.394  1.00  0.00     0.232 C 
BRANCH  12  13
HETATM   13  O2  BES   501      36.167  14.990 198.113  1.00  0.00    -0.384 OA
HETATM   14  H12 BES   501      35.869  15.513 198.972  1.00  0.00     0.210 HD
ENDBRANCH  12  13
BRANCH  12  15
HETATM   15  C3  BES   501      37.317  13.912 199.858  1.00  0.00     0.249 C 
HETATM   16  O3  BES   501      37.095  12.765 200.175  1.00  0.00    -0.271 OA
HETATM   17  N1  BES   501      37.619  14.975 200.825  1.00  0.00    -0.344 N 
HETATM   18  H23 BES   501      37.813  15.956 200.443  1.00  0.00     0.163 HD
BRANCH  17  19
HETATM   19  C4  BES   501      37.675  14.788 202.274  1.00  0.00     0.185 C 
BRANCH  19  20
HETATM   20  C13 BES   501      39.087  15.099 202.780  1.00  0.00     0.040 C 
BRANCH  20  21
HETATM   21  C14 BES   501      39.971  13.872 202.677  1.00  0.00    -0.020 C 
HETATM   22  C15 BES   501      41.156  14.025 203.631  1.00  0.00     0.009 C 
HETATM   23  C16 BES   501      39.207  12.627 203.000  1.00  0.00     0.009 C 
ENDBRANCH  20  21
ENDBRANCH  19  20
BRANCH  19  24
HETATM   24  C5  BES   501      36.725  15.762 202.890  1.00  0.00     0.196 C 
HETATM   25  O1  BES   501      36.908  16.998 202.718  1.00  0.00    -0.646 OA
HETATM   26  O4  BES   501      35.734  15.286 203.528  1.00  0.00    -0.646 OA
ENDBRANCH  19  24
ENDBRANCH  17  19
ENDBRANCH  12  15
ENDBRANCH   4  12
ENDBRANCH   1   4
TORSDOF 10
ENDMDL
MODEL 3
REMARK VINA RESULT:    -1.889      6.469      9.654
REMARK INTER + INTRA:          -6.812
REMARK INTER:                  -3.641
REMARK INTRA:                  -3.171
REMARK UNBOUND:                -3.210
REMARK  7 active torsions:
REMARK  status: ('A' for Active; 'I' for Inactive)
REMARK    1  A    between atoms: N2_1  and  C1_2 
REMARK    2  A    between atoms: C1_2  and  C2_3 
REMARK    3  A    between atoms: C2_3  and  C3_4 
REMARK       I    between atoms: C3_4  and  N1_6 
REMARK    4  A    between atoms: N1_6  and  C4_7 
REMARK    5  A    between atoms: C4_7  and  C13_8 
REMARK    6  A    between atoms: C4_7  and  C5_10 
REMARK    7  A    between atoms: C13_8  and  C7_9 
ROOT
HETATM    1  N2  BES   501      31.184  17.338 196.814  1.00  0.00    -0.079 N 
HETATM    2  H1  BES   501      31.278  16.421 197.358  1.00  0.00     0.274 HD
HETATM    3  H2  BES   501      31.876  17.340 195.998  1.00  0.00     0.274 HD
HETATM    4  H1  BES   501      30.187  17.427 196.437  1.00  0.00     0.274 HD
ENDROOT
BRANCH   1   5
HETATM    5  C1  BES   501      31.476  18.475 197.710  1.00  0.00     0.238 C 
BRANCH   5   6
HETATM    6  C2  BES   501      32.318  19.533 197.066  1.00  0.00     0.123 C 
BRANCH   6   7
HETATM    7  C3  BES   501      32.380  19.275 195.588  1.00  0.00     0.199 C 
HETATM    8  O3  BES   501      31.585  19.860 194.887  1.00  0.00    -0.280 OA
HETATM    9  N1  BES   501      33.389  18.343 195.066  1.00  0.00    -0.248 NA
HETATM   10  H7  BES   501      33.212  17.415 195.569  1.00  0.00     0.131 HD
BRANCH   9  11
HETATM   11  C4  BES   501      33.548  17.998 193.653  1.00  0.00     0.169 C 
BRANCH  11  12
HETATM   12  C13 BES   501      34.985  17.534 193.395  1.00  0.00     0.089 C 
BRANCH  12  13
HETATM   13  C7  BES   501      35.557  18.222 192.142  1.00  0.00     0.031 A 
HETATM   14  C21 BES   501      35.649  17.605 190.733  1.00  0.00     0.143 A 
HETATM   15  N22 BES   501      36.287  18.648 189.798  1.00  0.00    -0.254 N 
HETATM   16  C23 BES   501      36.591  19.910 190.628  1.00  0.00     0.209 A 
HETATM   17  N24 BES   501      36.139  19.645 192.076  1.00  0.00    -0.348 N 
HETATM   18  C1  BES   501      36.250  20.620 193.238  1.00  0.00     0.157 C 
ENDBRANCH  12  13
ENDBRANCH  11  12
BRANCH  11  19
HETATM   19  C5  BES   501      32.622  16.863 193.362  1.00  0.00     0.192 C 
HETATM   20  O1  BES   501      32.201  16.148 194.312  1.00  0.00    -0.647 OA
HETATM   21  O4  BES   501      32.263  16.700 192.154  1.00  0.00    -0.647 OA
ENDBRANCH  11  19
ENDBRANCH   9  11
ENDBRANCH   6   7
ENDBRANCH   5   6
ENDBRANCH   1   5
TORSDOF 7
REMARK  10 active torsions:
REMARK  status: ('A' for Active; 'I' for Inactive)
REMARK    1  A    between atoms: N2_1  and  C1_2 
REMARK    2  A    between atoms: C1_2  and  C6_3 
REMARK    3  A    between atoms: C1_2  and  C2_10 
REMARK    4  A    between atoms: C6_3  and  C7_4 
REMARK    5  A    between atoms: C2_10  and  O2_11 
REMARK    6  A    between atoms: C2_10  and  C3_12 
REMARK       I    between atoms: C3_12  and  N1_14 
REMARK    7  A    between atoms: N1_14  and  C4_15 
REMARK    8  A    between atoms: C4_15  and  C13_16 
REMARK    9  A    between atoms: C4_15  and  C5_20 
REMARK   10  A    between atoms: C13_16  and  C14_17 
ROOT
HETATM    1  N2  BES   501      33.864  14.426 190.944  1.00  0.00    -0.423 N 
HETATM    2  H1  BES   501      33.528  13.768 190.170  1.00  0.00     0.150 HD
HETATM    3  H2  BES   501      33.647  15.472 190.889  1.00  0.00     0.150 HD
ENDROOT
BRANCH   1   4
HETATM    4  C1  BES   501      34.609  13.904 192.056  1.00  0.00     0.116 C 
BRANCH   4   5
HETATM    5  C6  BES   501      35.806  13.005 191.733  1.00  0.00     0.066 C 
BRANCH   5   6
HETATM    6  C7  BES   501      37.131  13.488 192.347  1.00  0.00    -0.056 A 
HETATM    7  C8  BES   501      37.329  14.842 192.701  1.00  0.00     0.007 A 
HETATM    8  C9  BES   501      38.555  15.255 193.267  1.00  0.00     0.001 A 
HETATM    9  C10 BES   501      39.569  14.328 193.490  1.00  0.00     0.000 A 
HETATM   10  C11 BES   501      39.368  12.979 193.144  1.00  0.00     0.001 A 
HETATM   11  C12 BES   501      38.143  12.564 192.578  1.00  0.00     0.007 A 
ENDBRANCH   5   6
ENDBRANCH   4   5
BRANCH   4  12
HETATM   12  C2  BES   501      33.650  13.069 192.847  1.00  0.00     0.232 C 
BRANCH  12  13
HETATM   13  O2  BES   501      32.406  13.634 192.754  1.00  0.00    -0.384 OA
HETATM   14  H12 BES   501      32.494  14.621 192.410  1.00  0.00     0.210 HD
ENDBRANCH  12  13
BRANCH  12  15
HETATM   15  C3  BES   501      34.092  13.038 194.281  1.00  0.00     0.249 C 
HETATM   16  O3  BES   501      34.047  11.973 194.855  1.00  0.00    -0.271 OA
HETATM   17  N1  BES   501      34.554  14.280 194.914  1.00  0.00    -0.344 N 
HETATM   18  H23 BES   501      34.567  15.169 194.317  1.00  0.00     0.163 HD
BRANCH  17  19
HETATM   19  C4  BES   501      34.999  14.389 196.303  1.00  0.00     0.185 C 
BRANCH  19  20
HETATM   20  C13 BES   501      36.405  14.996 196.346  1.00  0.00     0.040 C 
BRANCH  20  21
HETATM   21  C14 BES   501      37.373  14.049 197.025  1.00  0.00    -0.020 C 
HETATM   22  C15 BES   501      37.387  12.718 196.271  1.00  0.00     0.009 C 
HETATM   23  C16 BES   501      38.752  14.628 197.073  1.00  0.00     0.009 C 
ENDBRANCH  20  21
ENDBRANCH  19  20
BRANCH  19  24
HETATM   24  C5  BES   501      34.060  15.314 197.004  1.00  0.00     0.196 C 
HETATM   25  O1  BES   501      34.357  16.535 197.108  1.00  0.00    -0.646 OA
HETATM   26  O4  BES   501      32.966  14.823 197.427  1.00  0.00    -0.646 OA
ENDBRANCH  19  24
ENDBRANCH  17  19
ENDBRANCH  12  15
ENDBRANCH   4  12
ENDBRANCH   1   4
TORSDOF 10
ENDMDL
MODEL 4
REMARK VINA RESULT:    -1.886      3.443      7.915
REMARK INTER + INTRA:          -6.805
REMARK INTER:                  -3.665
REMARK INTRA:                  -3.140
REMARK UNBOUND:                -3.210
REMARK  7 active torsions:
REMARK  status: ('A' for Active; 'I' for Inactive)
REMARK    1  A    between atoms: N2_1  and  C1_2 
REMARK    2  A    between atoms: C1_2  and  C2_3 
REMARK    3  A    between atoms: C2_3  and  C3_4 
REMARK       I    between atoms: C3_4  and  N1_6 
REMARK    4  A    between atoms: N1_6  and  C4_7 
REMARK    5  A    between atoms: C4_7  and  C13_8 
REMARK    6  A    between atoms: C4_7  and  C5_10 
REMARK    7  A    between atoms: C13_8  and  C7_9 
ROOT
HETATM    1  N2  BES   501      45.261  13.518 195.014  1.00  0.00    -0.079 N 
HETATM    2  H1  BES   501      46.302  13.579 195.257  1.00  0.00     0.274 HD
HETATM    3  H2  BES   501      44.685  13.504 195.916  1.00  0.00     0.274 HD
HETATM    4  H1  BES   501      44.983  14.369 194.427  1.00  0.00     0.274 HD
ENDROOT
BRANCH   1   5
HETATM    5  C1  BES   501      45.005  12.284 194.246  1.00  0.00     0.238 C 
BRANCH   5   6
HETATM    6  C2  BES   501      43.639  12.243 193.633  1.00  0.00     0.123 C 
BRANCH   6   7
HETATM    7  C3  BES   501      43.071  13.633 193.612  1.00  0.00     0.199 C 
HETATM    8  O3  BES   501      43.249  14.291 192.612  1.00  0.00    -0.280 OA
HETATM    9  N1  BES   501      42.333  14.122 194.784  1.00  0.00    -0.248 NA
HETATM   10  H7  BES   501      43.012  14.042 195.607  1.00  0.00     0.131 HD
BRANCH   9  11
HETATM   11  C4  BES   501      41.741  15.456 194.894  1.00  0.00     0.169 C 
BRANCH  11  12
HETATM   12  C13 BES   501      40.618  15.435 195.936  1.00  0.00     0.089 C 
BRANCH  12  13
HETATM   13  C7  BES   501      39.360  16.135 195.387  1.00  0.00     0.031 A 
HETATM   14  C21 BES   501      39.022  17.631 195.527  1.00  0.00     0.143 A 
HETATM   15  N22 BES   501      37.673  17.881 194.830  1.00  0.00    -0.254 N 
HETATM   16  C23 BES   501      37.176  16.540 194.258  1.00  0.00     0.209 A 
HETATM   17  N24 BES   501      38.219  15.461 194.604  1.00  0.00    -0.348 N 
HETATM   18  C1  BES   501      38.136  13.988 194.235  1.00  0.00     0.157 C 
ENDBRANCH  12  13
ENDBRANCH  11  12
BRANCH  11  19
HETATM   19  C5  BES   501      42.811  16.384 195.367  1.00  0.00     0.192 C 
HETATM   20  O1  BES   501      43.810  15.917 195.979  1.00  0.00    -0.647 OA
HETATM   21  O4  BES   501      42.681  17.616 195.083  1.00  0.00    -0.647 OA
ENDBRANCH  11  19
ENDBRANCH   9  11
ENDBRANCH   6   7
ENDBRANCH   5   6
ENDBRANCH   1   5
TORSDOF 7
REMARK  10 active torsions:
REMARK  status: ('A' for Active; 'I' for Inactive)
REMARK    1  A    between atoms: N2_1  and  C1_2 
REMARK    2  A    between atoms: C1_2  and  C6_3 
REMARK    3  A    between atoms: C1_2  and  C2_10 
REMARK    4  A    between atoms: C6_3  and  C7_4 
REMARK    5  A    between atoms: C2_10  and  O2_11 
REMARK    6  A    between atoms: C2_10  and  C3_12 
REMARK       I    between atoms: C3_12  and  N1_14 
REMARK    7  A    between atoms: N1_14  and  C4_15 
REMARK    8  A    between atoms: C4_15  and  C13_16 
REMARK    9  A    between atoms: C4_15  and  C5_20 
REMARK   10  A    between atoms: C13_16  and  C14_17 
ROOT
HETATM    1  N2  BES   501      41.667  19.069 197.542  1.00  0.00    -0.423 N 
HETATM    2  H1  BES   501      40.966  19.007 196.736  1.00  0.00     0.150 HD
HETATM    3  H2  BES   501      42.364  19.881 197.583  1.00  0.00     0.150 HD
ENDROOT
BRANCH   1   4
HETATM    4  C1  BES   501      41.676  18.063 198.567  1.00  0.00     0.116 C 
BRANCH   4   5
HETATM    5  C6  BES   501      40.850  18.345 199.826  1.00  0.00     0.066 C 
BRANCH   5   6
HETATM    6  C7  BES   501      39.856  17.227 200.182  1.00  0.00    -0.056 A 
HETATM    7  C8  BES   501      39.456  16.991 201.516  1.00  0.00     0.007 A 
HETATM    8  C9  BES   501      38.538  15.960 201.811  1.00  0.00     0.001 A 
HETATM    9  C10 BES   501      38.013  15.179 200.786  1.00  0.00     0.000 A 
HETATM   10  C11 BES   501      38.406  15.418 199.456  1.00  0.00     0.001 A 
HETATM   11  C12 BES   501      39.324  16.449 199.160  1.00  0.00     0.007 A 
ENDBRANCH   5   6
ENDBRANCH   4   5
BRANCH   4  12
HETATM   12  C2  BES   501      43.100  17.931 199.012  1.00  0.00     0.232 C 
BRANCH  12  13
HETATM   13  O2  BES   501      43.912  18.154 197.933  1.00  0.00    -0.384 OA
HETATM   14  H12 BES   501      44.715  18.766 198.219  1.00  0.00     0.210 HD
ENDBRANCH  12  13
BRANCH  12  15
HETATM   15  C3  BES   501      43.321  16.544 199.541  1.00  0.00     0.249 C 
HETATM   16  O3  BES   501      43.955  16.434 200.567  1.00  0.00    -0.271 OA
HETATM   17  N1  BES   501      42.768  15.400 198.805  1.00  0.00    -0.344 N 
HETATM   18  H23 BES   501      42.211  15.603 197.914  1.00  0.00     0.163 HD
BRANCH  17  19
HETATM   19  C4  BES   501      42.921  14.002 199.206  1.00  0.00     0.185 C 
BRANCH  19  20
HETATM   20  C13 BES   501      41.540  13.355 199.356  1.00  0.00     0.040 C 
BRANCH  20  21
HETATM   21  C14 BES   501      41.380  12.758 200.739  1.00  0.00    -0.020 C 
HETATM   22  C15 BES   501      41.571  13.856 201.786  1.00  0.00     0.009 C 
HETATM   23  C16 BES   501      40.035  12.121 200.900  1.00  0.00     0.009 C 
ENDBRANCH  20  21
ENDBRANCH  19  20
BRANCH  19  24
HETATM   24  C5  BES   501      43.658  13.300 198.114  1.00  0.00     0.196 C 
HETATM   25  O1  BES   501      43.008  12.722 197.200  1.00  0.00    -0.646 OA
HETATM   26  O4  BES   501      44.928  13.364 198.133  1.00  0.00    -0.646 OA
ENDBRANCH  19  24
ENDBRANCH  17  19
ENDBRANCH  12  15
ENDBRANCH   4  12
ENDBRANCH   1   4
TORSDOF 10
ENDMDL
MODEL 5
REMARK VINA RESULT:    -1.867      8.123     11.590
REMARK INTER + INTRA:          -6.769
REMARK INTER:                  -3.578
REMARK INTRA:                  -3.191
REMARK UNBOUND:                -3.210
REMARK  7 active torsions:
REMARK  status: ('A' for Active; 'I' for Inactive)
REMARK    1  A    between atoms: N2_1  and  C1_2 
REMARK    2  A    between atoms: C1_2  and  C2_3 
REMARK    3  A    between atoms: C2_3  and  C3_4 
REMARK       I    between atoms: C3_4  and  N1_6 
REMARK    4  A    between atoms: N1_6  and  C4_7 
REMARK    5  A    between atoms: C4_7  and  C13_8 
REMARK    6  A    between atoms: C4_7  and  C5_10 
REMARK    7  A    between atoms: C13_8  and  C7_9 
ROOT
HETATM    1  N2  BES   501      35.047  16.079 194.638  1.00  0.00    -0.079 N 
HETATM    2  H1  BES   501      35.379  15.102 194.924  1.00  0.00     0.274 HD
HETATM    3  H2  BES   501      35.641  16.816 195.137  1.00  0.00     0.274 HD
HETATM    4  H1  BES   501      35.152  16.194 193.580  1.00  0.00     0.274 HD
ENDROOT
BRANCH   1   5
HETATM    5  C1  BES   501      33.631  16.249 195.015  1.00  0.00     0.238 C 
BRANCH   5   6
HETATM    6  C2  BES   501      33.258  17.675 195.283  1.00  0.00     0.123 C 
BRANCH   6   7
HETATM    7  C3  BES   501      34.369  18.567 194.809  1.00  0.00     0.199 C 
HETATM    8  O3  BES   501      34.321  18.956 193.664  1.00  0.00    -0.280 OA
HETATM    9  N1  BES   501      35.445  18.927 195.743  1.00  0.00    -0.248 NA
HETATM   10  H7  BES   501      35.865  17.999 196.069  1.00  0.00     0.131 HD
BRANCH   9  11
HETATM   11  C4  BES   501      36.587  19.777 195.405  1.00  0.00     0.169 C 
BRANCH  11  12
HETATM   12  C13 BES   501      37.117  20.453 196.673  1.00  0.00     0.089 C 
BRANCH  12  13
HETATM   13  C7  BES   501      37.763  21.809 196.332  1.00  0.00     0.031 A 
HETATM   14  C21 BES   501      37.016  23.087 195.908  1.00  0.00     0.143 A 
HETATM   15  N22 BES   501      38.060  24.192 195.668  1.00  0.00    -0.254 N 
HETATM   16  C23 BES   501      39.455  23.598 195.944  1.00  0.00     0.209 A 
HETATM   17  N24 BES   501      39.270  22.125 196.354  1.00  0.00    -0.348 N 
HETATM   18  C1  BES   501      40.382  21.153 196.717  1.00  0.00     0.157 C 
ENDBRANCH  12  13
ENDBRANCH  11  12
BRANCH  11  19
HETATM   19  C5  BES   501      37.656  18.893 194.853  1.00  0.00     0.192 C 
HETATM   20  O1  BES   501      38.490  19.367 194.034  1.00  0.00    -0.647 OA
HETATM   21  O4  BES   501      37.700  17.696 195.280  1.00  0.00    -0.647 OA
ENDBRANCH  11  19
ENDBRANCH   9  11
ENDBRANCH   6   7
ENDBRANCH   5   6
ENDBRANCH   1   5
TORSDOF 7
REMARK  10 active torsions:
REMARK  status: ('A' for Active; 'I' for Inactive)
REMARK    1  A    between atoms: N2_1  and  C1_2 
REMARK    2  A    between atoms: C1_2  and  C6_3 
REMARK    3  A    between atoms: C1_2  and  C2_10 
REMARK    4  A    between atoms: C6_3  and  C7_4 
REMARK    5  A    between atoms: C2_10  and  O2_11 
REMARK    6  A    between atoms: C2_10  and  C3_12 
REMARK       I    between atoms: C3_12  and  N1_14 
REMARK    7  A    between atoms: N1_14  and  C4_15 
REMARK    8  A    between atoms: C4_15  and  C13_16 
REMARK    9  A    between atoms: C4_15  and  C5_20 
REMARK   10  A    between atoms: C13_16  and  C14_17 
ROOT
HETATM    1  N2  BES   501      38.571  16.953 198.000  1.00  0.00    -0.423 N 
HETATM    2  H1  BES   501      39.437  16.479 198.411  1.00  0.00     0.150 HD
HETATM    3  H2  BES   501      38.417  16.962 196.941  1.00  0.00     0.150 HD
ENDROOT
BRANCH   1   4
HETATM    4  C1  BES   501      37.614  17.580 198.870  1.00  0.00     0.116 C 
BRANCH   4   5
HETATM    5  C6  BES   501      37.954  17.626 200.363  1.00  0.00     0.066 C 
BRANCH   5   6
HETATM    6  C7  BES   501      38.268  19.038 200.885  1.00  0.00    -0.056 A 
HETATM    7  C8  BES   501      38.520  20.112 200.003  1.00  0.00     0.007 A 
HETATM    8  C9  BES   501      38.800  21.399 200.513  1.00  0.00     0.001 A 
HETATM    9  C10 BES   501      38.818  21.616 201.888  1.00  0.00     0.000 A 
HETATM   10  C11 BES   501      38.561  20.548 202.766  1.00  0.00     0.001 A 
HETATM   11  C12 BES   501      38.280  19.261 202.258  1.00  0.00     0.007 A 
ENDBRANCH   5   6
ENDBRANCH   4   5
BRANCH   4  12
HETATM   12  C2  BES   501      36.352  16.783 198.746  1.00  0.00     0.232 C 
BRANCH  12  13
HETATM   13  O2  BES   501      36.137  16.516 197.420  1.00  0.00    -0.384 OA
HETATM   14  H12 BES   501      36.130  15.478 197.268  1.00  0.00     0.210 HD
ENDBRANCH  12  13
BRANCH  12  15
HETATM   15  C3  BES   501      35.209  17.584 199.298  1.00  0.00     0.249 C 
HETATM   16  O3  BES   501      34.472  17.034 200.085  1.00  0.00    -0.271 OA
HETATM   17  N1  BES   501      35.039  18.978 198.868  1.00  0.00    -0.344 N 
HETATM   18  H23 BES   501      35.752  19.377 198.176  1.00  0.00     0.163 HD
BRANCH  17  19
HETATM   19  C4  BES   501      33.965  19.861 199.320  1.00  0.00     0.185 C 
BRANCH  19  20
HETATM   20  C13 BES   501      34.563  21.158 199.874  1.00  0.00     0.040 C 
BRANCH  20  21
HETATM   21  C14 BES   501      35.093  20.943 201.278  1.00  0.00    -0.020 C 
HETATM   22  C15 BES   501      35.233  22.296 201.975  1.00  0.00     0.009 C 
HETATM   23  C16 BES   501      34.187  20.049 202.065  1.00  0.00     0.009 C 
ENDBRANCH  20  21
ENDBRANCH  19  20
BRANCH  19  24
HETATM   24  C5  BES   501      33.127  20.196 198.130  1.00  0.00     0.196 C 
HETATM   25  O1  BES   501      33.590  20.965 197.243  1.00  0.00    -0.646 OA
HETATM   26  O4  BES   501      31.987  19.639 198.044  1.00  0.00    -0.646 OA
ENDBRANCH  19  24
ENDBRANCH  17  19
ENDBRANCH  12  15
ENDBRANCH   4  12
ENDBRANCH   1   4
TORSDOF 10
ENDMDL
MODEL 6
REMARK VINA RESULT:    -1.865      7.374     10.307
REMARK INTER + INTRA:          -6.765
REMARK INTER:                  -3.700
REMARK INTRA:                  -3.065
REMARK UNBOUND:                -3.210
REMARK  7 active torsions:
REMARK  status: ('A' for Active; 'I' for Inactive)
REMARK    1  A    between atoms: N2_1  and  C1_2 
REMARK    2  A    between atoms: C1_2  and  C2_3 
REMARK    3  A    between atoms: C2_3  and  C3_4 
REMARK       I    between atoms: C3_4  and  N1_6 
REMARK    4  A    between atoms: N1_6  and  C4_7 
REMARK    5  A    between atoms: C4_7  and  C13_8 
REMARK    6  A    between atoms: C4_7  and  C5_10 
REMARK    7  A    between atoms: C13_8  and  C7_9 
ROOT
HETATM    1  N2  BES   501      32.417  21.134 195.106  1.00  0.00    -0.079 N 
HETATM    2  H1  BES   501      32.210  20.677 196.052  1.00  0.00     0.274 HD
HETATM    3  H2  BES   501      32.135  22.166 195.140  1.00  0.00     0.274 HD
HETATM    4  H1  BES   501      33.464  21.058 194.896  1.00  0.00     0.274 HD
ENDROOT
BRANCH   1   5
HETATM    5  C1  BES   501      31.650  20.447 194.049  1.00  0.00     0.238 C 
BRANCH   5   6
HETATM    6  C2  BES   501      31.286  19.039 194.403  1.00  0.00     0.123 C 
BRANCH   6   7
HETATM    7  C3  BES   501      31.317  18.888 195.897  1.00  0.00     0.199 C 
HETATM    8  O3  BES   501      30.303  19.149 196.504  1.00  0.00    -0.280 OA
HETATM    9  N1  BES   501      32.555  18.432 196.544  1.00  0.00    -0.248 NA
HETATM   10  H7  BES   501      33.308  19.136 196.254  1.00  0.00     0.131 HD
BRANCH   9  11
HETATM   11  C4  BES   501      32.721  18.254 197.987  1.00  0.00     0.169 C 
BRANCH  11  12
HETATM   12  C13 BES   501      33.721  17.126 198.255  1.00  0.00     0.089 C 
BRANCH  12  13
HETATM   13  C7  BES   501      33.120  16.090 199.224  1.00  0.00     0.031 A 
HETATM   14  C21 BES   501      32.564  16.382 200.630  1.00  0.00     0.143 A 
HETATM   15  N22 BES   501      32.072  15.054 201.232  1.00  0.00    -0.254 N 
HETATM   16  C23 BES   501      32.322  13.940 200.198  1.00  0.00     0.209 A 
HETATM   17  N24 BES   501      32.970  14.582 198.957  1.00  0.00    -0.348 N 
HETATM   18  C1  BES   501      33.389  13.852 197.690  1.00  0.00     0.157 C 
ENDBRANCH  12  13
ENDBRANCH  11  12
BRANCH  11  19
HETATM   19  C5  BES   501      33.279  19.526 198.534  1.00  0.00     0.192 C 
HETATM   20  O1  BES   501      33.189  19.761 199.770  1.00  0.00    -0.647 OA
HETATM   21  O4  BES   501      33.869  20.302 197.718  1.00  0.00    -0.647 OA
ENDBRANCH  11  19
ENDBRANCH   9  11
ENDBRANCH   6   7
ENDBRANCH   5   6
ENDBRANCH   1   5
TORSDOF 7
REMARK  10 active torsions:
REMARK  status: ('A' for Active; 'I' for Inactive)
REMARK    1  A    between atoms: N2_1  and  C1_2 
REMARK    2  A    between atoms: C1_2  and  C6_3 
REMARK    3  A    between atoms: C1_2  and  C2_10 
REMARK    4  A    between atoms: C6_3  and  C7_4 
REMARK    5  A    between atoms: C2_10  and  O2_11 
REMARK    6  A    between atoms: C2_10  and  C3_12 
REMARK       I    between atoms: C3_12  and  N1_14 
REMARK    7  A    between atoms: N1_14  and  C4_15 
REMARK    8  A    between atoms: C4_15  and  C13_16 
REMARK    9  A    between atoms: C4_15  and  C5_20 
REMARK   10  A    between atoms: C13_16  and  C14_17 
ROOT
HETATM    1  N2  BES   501      35.669  18.953 201.278  1.00  0.00    -0.423 N 
HETATM    2  H1  BES   501      35.706  18.473 202.234  1.00  0.00     0.150 HD
HETATM    3  H2  BES   501      34.951  19.726 201.096  1.00  0.00     0.150 HD
ENDROOT
BRANCH   1   4
HETATM    4  C1  BES   501      36.583  18.561 200.241  1.00  0.00     0.116 C 
BRANCH   4   5
HETATM    5  C6  BES   501      37.806  17.742 200.663  1.00  0.00     0.066 C 
BRANCH   5   6
HETATM    6  C7  BES   501      37.762  16.275 200.201  1.00  0.00    -0.056 A 
HETATM    7  C8  BES   501      36.555  15.542 200.190  1.00  0.00     0.007 A 
HETATM    8  C9  BES   501      36.545  14.198 199.755  1.00  0.00     0.001 A 
HETATM    9  C10 BES   501      37.723  13.595 199.324  1.00  0.00     0.000 A 
HETATM   10  C11 BES   501      38.924  14.328 199.329  1.00  0.00     0.001 A 
HETATM   11  C12 BES   501      38.935  15.672 199.763  1.00  0.00     0.007 A 
ENDBRANCH   5   6
ENDBRANCH   4   5
BRANCH   4  12
HETATM   12  C2  BES   501      37.106  19.831 199.643  1.00  0.00     0.232 C 
BRANCH  12  13
HETATM   13  O2  BES   501      36.111  20.770 199.684  1.00  0.00    -0.384 OA
HETATM   14  H12 BES   501      36.531  21.729 199.619  1.00  0.00     0.210 HD
ENDBRANCH  12  13
BRANCH  12  15
HETATM   15  C3  BES   501      37.509  19.573 198.220  1.00  0.00     0.249 C 
HETATM   16  O3  BES   501      38.632  19.886 197.894  1.00  0.00    -0.271 OA
HETATM   17  N1  BES   501      36.540  18.962 197.301  1.00  0.00    -0.344 N 
HETATM   18  H23 BES   501      35.575  18.710 197.690  1.00  0.00     0.163 HD
BRANCH  17  19
HETATM   19  C4  BES   501      36.802  18.669 195.893  1.00  0.00     0.185 C 
BRANCH  19  20
HETATM   20  C13 BES   501      36.358  17.238 195.573  1.00  0.00     0.040 C 
BRANCH  20  21
HETATM   21  C14 BES   501      37.135  16.241 196.410  1.00  0.00    -0.020 C 
HETATM   22  C15 BES   501      36.652  14.827 196.084  1.00  0.00     0.009 C 
HETATM   23  C16 BES   501      38.605  16.354 196.158  1.00  0.00     0.009 C 
ENDBRANCH  20  21
ENDBRANCH  19  20
BRANCH  19  24
HETATM   24  C5  BES   501      35.981  19.614 195.078  1.00  0.00     0.196 C 
HETATM   25  O1  BES   501      34.839  19.255 194.678  1.00  0.00    -0.646 OA
HETATM   26  O4  BES   501      36.463  20.771 194.866  1.00  0.00    -0.646 OA
ENDBRANCH  19  24
ENDBRANCH  17  19
ENDBRANCH  12  15
ENDBRANCH   4  12
ENDBRANCH   1   4
TORSDOF 10
ENDMDL
MODEL 7
REMARK VINA RESULT:    -1.862      8.125     12.119
REMARK INTER + INTRA:          -6.760
REMARK INTER:                  -3.661
REMARK INTRA:                  -3.100
REMARK UNBOUND:                -3.210
REMARK  7 active torsions:
REMARK  status: ('A' for Active; 'I' for Inactive)
REMARK    1  A    between atoms: N2_1  and  C1_2 
REMARK    2  A    between atoms: C1_2  and  C2_3 
REMARK    3  A    between atoms: C2_3  and  C3_4 
REMARK       I    between atoms: C3_4  and  N1_6 
REMARK    4  A    between atoms: N1_6  and  C4_7 
REMARK    5  A    between atoms: C4_7  and  C13_8 
REMARK    6  A    between atoms: C4_7  and  C5_10 
REMARK    7  A    between atoms: C13_8  and  C7_9 
ROOT
HETATM    1  N2  BES   501      31.298  14.130 194.611  1.00  0.00    -0.079 N 
HETATM    2  H1  BES   501      31.160  13.607 195.535  1.00  0.00     0.274 HD
HETATM    3  H2  BES   501      31.530  15.155 194.814  1.00  0.00     0.274 HD
HETATM    4  H1  BES   501      32.104  13.683 194.067  1.00  0.00     0.274 HD
ENDROOT
BRANCH   1   5
HETATM    5  C1  BES   501      30.060  14.053 193.811  1.00  0.00     0.238 C 
BRANCH   5   6
HETATM    6  C2  BES   501      30.227  14.566 192.414  1.00  0.00     0.123 C 
BRANCH   6   7
HETATM    7  C3  BES   501      31.689  14.772 192.141  1.00  0.00     0.199 C 
HETATM    8  O3  BES   501      32.280  13.881 191.572  1.00  0.00    -0.280 OA
HETATM    9  N1  BES   501      32.327  16.026 192.565  1.00  0.00    -0.248 NA
HETATM   10  H7  BES   501      32.162  16.090 193.621  1.00  0.00     0.131 HD
BRANCH   9  11
HETATM   11  C4  BES   501      33.741  16.345 192.369  1.00  0.00     0.169 C 
BRANCH  11  12
HETATM   12  C13 BES   501      33.938  17.863 192.427  1.00  0.00     0.089 C 
BRANCH  12  13
HETATM   13  C7  BES   501      34.509  18.385 191.095  1.00  0.00     0.031 A 
HETATM   14  C21 BES   501      33.687  18.896 189.896  1.00  0.00     0.143 A 
HETATM   15  N22 BES   501      34.671  19.313 188.789  1.00  0.00    -0.254 N 
HETATM   16  C23 BES   501      36.101  19.061 189.301  1.00  0.00     0.209 A 
HETATM   17  N24 BES   501      36.000  18.487 190.727  1.00  0.00    -0.348 N 
HETATM   18  C1  BES   501      37.169  18.091 191.615  1.00  0.00     0.157 C 
ENDBRANCH  12  13
ENDBRANCH  11  12
BRANCH  11  19
HETATM   19  C5  BES   501      34.501  15.723 193.494  1.00  0.00     0.192 C 
HETATM   20  O1  BES   501      33.929  15.543 194.603  1.00  0.00    -0.647 OA
HETATM   21  O4  BES   501      35.696  15.358 193.257  1.00  0.00    -0.647 OA
ENDBRANCH  11  19
ENDBRANCH   9  11
ENDBRANCH   6   7
ENDBRANCH   5   6
ENDBRANCH   1   5
TORSDOF 7
REMARK  10 active torsions:
REMARK  status: ('A' for Active; 'I' for Inactive)
REMARK    1  A    between atoms: N2_1  and  C1_2 
REMARK    2  A    between atoms: C1_2  and  C6_3 
REMARK    3  A    between atoms: C1_2  and  C2_10 
REMARK    4  A    between atoms: C6_3  and  C7_4 
REMARK    5  A    between atoms: C2_10  and  O2_11 
REMARK    6  A    between atoms: C2_10  and  C3_12 
REMARK       I    between atoms: C3_12  and  N1_14 
REMARK    7  A    between atoms: N1_14  and  C4_15 
REMARK    8  A    between atoms: C4_15  and  C13_16 
REMARK    9  A    between atoms: C4_15  and  C5_20 
REMARK   10  A    between atoms: C13_16  and  C14_17 
ROOT
HETATM    1  N2  BES   501      37.284  17.191 195.194  1.00  0.00    -0.423 N 
HETATM    2  H1  BES   501      37.715  17.331 194.224  1.00  0.00     0.150 HD
HETATM    3  H2  BES   501      37.566  16.346 195.787  1.00  0.00     0.150 HD
ENDROOT
BRANCH   1   4
HETATM    4  C1  BES   501      36.328  18.137 195.699  1.00  0.00     0.116 C 
BRANCH   4   5
HETATM    5  C6  BES   501      36.854  19.525 196.077  1.00  0.00     0.066 C 
BRANCH   5   6
HETATM    6  C7  BES   501      36.138  20.679 195.355  1.00  0.00    -0.056 A 
HETATM    7  C8  BES   501      35.884  21.909 196.003  1.00  0.00     0.007 A 
HETATM    8  C9  BES   501      35.229  22.952 195.312  1.00  0.00     0.001 A 
HETATM    9  C10 BES   501      34.841  22.777 193.987  1.00  0.00     0.000 A 
HETATM   10  C11 BES   501      35.101  21.555 193.341  1.00  0.00     0.001 A 
HETATM   11  C12 BES   501      35.756  20.511 194.029  1.00  0.00     0.007 A 
ENDBRANCH   5   6
ENDBRANCH   4   5
BRANCH   4  12
HETATM   12  C2  BES   501      35.769  17.537 196.952  1.00  0.00     0.232 C 
BRANCH  12  13
HETATM   13  O2  BES   501      35.769  16.175 196.817  1.00  0.00    -0.384 OA
HETATM   14  H12 BES   501      36.398  15.901 196.023  1.00  0.00     0.210 HD
ENDBRANCH  12  13
BRANCH  12  15
HETATM   15  C3  BES   501      34.365  18.032 197.148  1.00  0.00     0.249 C 
HETATM   16  O3  BES   501      34.029  18.321 198.275  1.00  0.00    -0.271 OA
HETATM   17  N1  BES   501      33.476  18.143 195.985  1.00  0.00    -0.344 N 
HETATM   18  H23 BES   501      33.872  17.874 195.027  1.00  0.00     0.163 HD
BRANCH  17  19
HETATM   19  C4  BES   501      32.088  18.599 196.041  1.00  0.00     0.185 C 
BRANCH  19  20
HETATM   20  C13 BES   501      31.865  19.701 195.000  1.00  0.00     0.040 C 
BRANCH  20  21
HETATM   21  C14 BES   501      32.109  21.067 195.610  1.00  0.00    -0.020 C 
HETATM   22  C15 BES   501      31.224  22.097 194.907  1.00  0.00     0.009 C 
HETATM   23  C16 BES   501      31.824  21.060 197.079  1.00  0.00     0.009 C 
ENDBRANCH  20  21
ENDBRANCH  19  20
BRANCH  19  24
HETATM   24  C5  BES   501      31.219  17.435 195.693  1.00  0.00     0.196 C 
HETATM   25  O1  BES   501      30.693  17.375 194.548  1.00  0.00    -0.646 OA
HETATM   26  O4  BES   501      31.090  16.523 196.569  1.00  0.00    -0.646 OA
ENDBRANCH  19  24
ENDBRANCH  17  19
ENDBRANCH  12  15
ENDBRANCH   4  12
ENDBRANCH   1   4
TORSDOF 10
ENDMDL
MODEL 8
REMARK VINA RESULT:    -1.862      4.747      8.490
REMARK INTER + INTRA:          -6.759
REMARK INTER:                  -3.650
REMARK INTRA:                  -3.109
REMARK UNBOUND:                -3.210
REMARK  7 active torsions:
REMARK  status: ('A' for Active; 'I' for Inactive)
REMARK    1  A    between atoms: N2_1  and  C1_2 
REMARK    2  A    between atoms: C1_2  and  C2_3 
REMARK    3  A    between atoms: C2_3  and  C3_4 
REMARK       I    between atoms: C3_4  and  N1_6 
REMARK    4  A    between atoms: N1_6  and  C4_7 
REMARK    5  A    between atoms: C4_7  and  C13_8 
REMARK    6  A    between atoms: C4_7  and  C5_10 
REMARK    7  A    between atoms: C13_8  and  C7_9 
ROOT
HETATM    1  N2  BES   501      34.178   8.627 193.331  1.00  0.00    -0.079 N 
HETATM    2  H1  BES   501      34.337   8.062 194.226  1.00  0.00     0.274 HD
HETATM    3  H2  BES   501      35.016   9.271 193.163  1.00  0.00     0.274 HD
HETATM    4  H1  BES   501      34.070   7.958 192.503  1.00  0.00     0.274 HD
ENDROOT
BRANCH   1   5
HETATM    5  C1  BES   501      32.953   9.439 193.472  1.00  0.00     0.238 C 
BRANCH   5   6
HETATM    6  C2  BES   501      33.130  10.858 193.026  1.00  0.00     0.123 C 
BRANCH   6   7
HETATM    7  C3  BES   501      34.410  10.969 192.249  1.00  0.00     0.199 C 
HETATM    8  O3  BES   501      34.362  10.738 191.062  1.00  0.00    -0.280 OA
HETATM    9  N1  BES   501      35.643  11.352 192.951  1.00  0.00    -0.248 NA
HETATM   10  H7  BES   501      35.772  10.622 193.724  1.00  0.00     0.131 HD
BRANCH   9  11
HETATM   11  C4  BES   501      36.953  11.485 192.315  1.00  0.00     0.169 C 
BRANCH  11  12
HETATM   12  C13 BES   501      37.621  12.783 192.779  1.00  0.00     0.089 C 
BRANCH  12  13
HETATM   13  C7  BES   501      38.025  13.645 191.568  1.00  0.00     0.031 A 
HETATM   14  C21 BES   501      38.490  13.119 190.197  1.00  0.00     0.143 A 
HETATM   15  N22 BES   501      38.788  14.333 189.299  1.00  0.00    -0.254 N 
HETATM   16  C23 BES   501      38.507  15.610 190.113  1.00  0.00     0.209 A 
HETATM   17  N24 BES   501      38.036  15.183 191.516  1.00  0.00    -0.348 N 
HETATM   18  C1  BES   501      37.649  16.119 192.650  1.00  0.00     0.157 C 
ENDBRANCH  12  13
ENDBRANCH  11  12
BRANCH  11  19
HETATM   19  C5  BES   501      37.789  10.332 192.765  1.00  0.00     0.192 C 
HETATM   20  O1  BES   501      39.041  10.467 192.841  1.00  0.00    -0.647 OA
HETATM   21  O4  BES   501      37.181   9.266 193.096  1.00  0.00    -0.647 OA
ENDBRANCH  11  19
ENDBRANCH   9  11
ENDBRANCH   6   7
ENDBRANCH   5   6
ENDBRANCH   1   5
TORSDOF 7
REMARK  10 active torsions:
REMARK  status: ('A' for Active; 'I' for Inactive)
REMARK    1  A    between atoms: N2_1  and  C1_2 
REMARK    2  A    between atoms: C1_2  and  C6_3 
REMARK    3  A    between atoms: C1_2  and  C2_10 
REMARK    4  A    between atoms: C6_3  and  C7_4 
REMARK    5  A    between atoms: C2_10  and  O2_11 
REMARK    6  A    between atoms: C2_10  and  C3_12 
REMARK       I    between atoms: C3_12  and  N1_14 
REMARK    7  A    between atoms: N1_14  and  C4_15 
REMARK    8  A    between atoms: C4_15  and  C13_16 
REMARK    9  A    between atoms: C4_15  and  C5_20 
REMARK   10  A    between atoms: C13_16  and  C14_17 
ROOT
HETATM    1  N2  BES   501      38.225  10.069 195.967  1.00  0.00    -0.423 N 
HETATM    2  H1  BES   501      38.105   9.164 196.525  1.00  0.00     0.150 HD
HETATM    3  H2  BES   501      38.879  10.092 195.120  1.00  0.00     0.150 HD
ENDROOT
BRANCH   1   4
HETATM    4  C1  BES   501      37.512  11.254 196.357  1.00  0.00     0.116 C 
BRANCH   4   5
HETATM    5  C6  BES   501      37.977  11.958 197.635  1.00  0.00     0.066 C 
BRANCH   5   6
HETATM    6  C7  BES   501      38.370  13.430 197.425  1.00  0.00    -0.056 A 
HETATM    7  C8  BES   501      38.780  13.912 196.162  1.00  0.00     0.007 A 
HETATM    8  C9  BES   501      39.130  15.270 196.000  1.00  0.00     0.001 A 
HETATM    9  C10 BES   501      39.061  16.144 197.081  1.00  0.00     0.000 A 
HETATM   10  C11 BES   501      38.646  15.665 198.337  1.00  0.00     0.001 A 
HETATM   11  C12 BES   501      38.296  14.307 198.502  1.00  0.00     0.007 A 
ENDBRANCH   5   6
ENDBRANCH   4   5
BRANCH   4  12
HETATM   12  C2  BES   501      36.096  10.829 196.596  1.00  0.00     0.232 C 
BRANCH  12  13
HETATM   13  O2  BES   501      35.707  10.019 195.563  1.00  0.00    -0.384 OA
HETATM   14  H12 BES   501      34.950   9.371 195.891  1.00  0.00     0.210 HD
ENDBRANCH  12  13
BRANCH  12  15
HETATM   15  C3  BES   501      35.221  12.047 196.648  1.00  0.00     0.249 C 
HETATM   16  O3  BES   501      34.492  12.169 197.608  1.00  0.00    -0.271 OA
HETATM   17  N1  BES   501      35.286  13.024 195.553  1.00  0.00    -0.344 N 
HETATM   18  H23 BES   501      35.973  12.831 194.754  1.00  0.00     0.163 HD
BRANCH  17  19
HETATM   19  C4  BES   501      34.482  14.242 195.477  1.00  0.00     0.185 C 
BRANCH  19  20
HETATM   20  C13 BES   501      35.393  15.469 195.598  1.00  0.00     0.040 C 
BRANCH  20  21
HETATM   21  C14 BES   501      34.881  16.408 196.672  1.00  0.00    -0.020 C 
HETATM   22  C15 BES   501      34.892  15.684 198.019  1.00  0.00     0.009 C 
HETATM   23  C16 BES   501      35.714  17.648 196.746  1.00  0.00     0.009 C 
ENDBRANCH  20  21
ENDBRANCH  19  20
BRANCH  19  24
HETATM   24  C5  BES   501      33.828  14.266 194.135  1.00  0.00     0.196 C 
HETATM   25  O1  BES   501      32.569  14.246 194.059  1.00  0.00    -0.646 OA
HETATM   26  O4  BES   501      34.587  14.357 193.119  1.00  0.00    -0.646 OA
ENDBRANCH  19  24
ENDBRANCH  17  19
ENDBRANCH  12  15
ENDBRANCH   4  12
ENDBRANCH   1   4
TORSDOF 10
ENDMDL
MODEL 9
REMARK VINA RESULT:    -1.844      5.979      8.363
REMARK INTER + INTRA:          -6.725
REMARK INTER:                  -3.553
REMARK INTRA:                  -3.172
REMARK UNBOUND:                -3.210
REMARK  7 active torsions:
REMARK  status: ('A' for Active; 'I' for Inactive)
REMARK    1  A    between atoms: N2_1  and  C1_2 
REMARK    2  A    between atoms: C1_2  and  C2_3 
REMARK    3  A    between atoms: C2_3  and  C3_4 
REMARK       I    between atoms: C3_4  and  N1_6 
REMARK    4  A    between atoms: N1_6  and  C4_7 
REMARK    5  A    between atoms: C4_7  and  C13_8 
REMARK    6  A    between atoms: C4_7  and  C5_10 
REMARK    7  A    between atoms: C13_8  and  C7_9 
ROOT
HETATM    1  N2  BES   501      37.303  12.511 190.786  1.00  0.00    -0.079 N 
HETATM    2  H1  BES   501      38.306  12.258 190.511  1.00  0.00     0.274 HD
HETATM    3  H2  BES   501      36.818  11.650 191.194  1.00  0.00     0.274 HD
HETATM    4  H1  BES   501      37.322  13.291 191.519  1.00  0.00     0.274 HD
ENDROOT
BRANCH   1   5
HETATM    5  C1  BES   501      36.567  12.974 189.593  1.00  0.00     0.238 C 
BRANCH   5   6
HETATM    6  C2  BES   501      35.413  13.871 189.923  1.00  0.00     0.123 C 
BRANCH   6   7
HETATM    7  C3  BES   501      35.564  14.362 191.334  1.00  0.00     0.199 C 
HETATM    8  O3  BES   501      36.159  15.403 191.500  1.00  0.00    -0.280 OA
HETATM    9  N1  BES   501      34.988  13.573 192.431  1.00  0.00    -0.248 NA
HETATM   10  H7  BES   501      35.436  12.603 192.355  1.00  0.00     0.131 HD
BRANCH   9  11
HETATM   11  C4  BES   501      35.074  13.933 193.846  1.00  0.00     0.169 C 
BRANCH  11  12
HETATM   12  C13 BES   501      33.885  13.332 194.603  1.00  0.00     0.089 C 
BRANCH  12  13
HETATM   13  C7  BES   501      33.009  14.447 195.205  1.00  0.00     0.031 A 
HETATM   14  C21 BES   501      31.871  15.194 194.483  1.00  0.00     0.143 A 
HETATM   15  N22 BES   501      31.277  16.219 195.465  1.00  0.00    -0.254 N 
HETATM   16  C23 BES   501      32.046  16.107 196.795  1.00  0.00     0.209 A 
HETATM   17  N24 BES   501      33.116  15.011 196.633  1.00  0.00    -0.348 N 
HETATM   18  C1  BES   501      34.106  14.565 197.698  1.00  0.00     0.157 C 
ENDBRANCH  12  13
ENDBRANCH  11  12
BRANCH  11  19
HETATM   19  C5  BES   501      36.332  13.337 194.386  1.00  0.00     0.192 C 
HETATM   20  O1  BES   501      36.922  12.437 193.729  1.00  0.00    -0.647 OA
HETATM   21  O4  BES   501      36.777  13.808 195.479  1.00  0.00    -0.647 OA
ENDBRANCH  11  19
ENDBRANCH   9  11
ENDBRANCH   6   7
ENDBRANCH   5   6
ENDBRANCH   1   5
TORSDOF 7
REMARK  10 active torsions:
REMARK  status: ('A' for Active; 'I' for Inactive)
REMARK    1  A    between atoms: N2_1  and  C1_2 
REMARK    2  A    between atoms: C1_2  and  C6_3 
REMARK    3  A    between atoms: C1_2  and  C2_10 
REMARK    4  A    between atoms: C6_3  and  C7_4 
REMARK    5  A    between atoms: C2_10  and  O2_11 
REMARK    6  A    between atoms: C2_10  and  C3_12 
REMARK       I    between atoms: C3_12  and  N1_14 
REMARK    7  A    between atoms: N1_14  and  C4_15 
REMARK    8  A    between atoms: C4_15  and  C13_16 
REMARK    9  A    between atoms: C4_15  and  C5_20 
REMARK   10  A    between atoms: C13_16  and  C14_17 
ROOT
HETATM    1  N2  BES   501      36.634  11.936 197.925  1.00  0.00    -0.423 N 
HETATM    2  H1  BES   501      36.860  12.849 197.415  1.00  0.00     0.150 HD
HETATM    3  H2  BES   501      36.983  11.782 198.925  1.00  0.00     0.150 HD
ENDROOT
BRANCH   1   4
HETATM    4  C1  BES   501      35.862  10.917 197.268  1.00  0.00     0.116 C 
BRANCH   4   5
HETATM    5  C6  BES   501      35.022   9.997 198.159  1.00  0.00     0.066 C 
BRANCH   5   6
HETATM    6  C7  BES   501      33.529   9.970 197.791  1.00  0.00    -0.056 A 
HETATM    7  C8  BES   501      32.903  11.071 197.164  1.00  0.00     0.007 A 
HETATM    8  C9  BES   501      31.531  11.014 196.834  1.00  0.00     0.001 A 
HETATM    9  C10 BES   501      30.792   9.869 197.115  1.00  0.00     0.000 A 
HETATM   10  C11 BES   501      31.417   8.771 197.733  1.00  0.00     0.001 A 
HETATM   11  C12 BES   501      32.789   8.825 198.064  1.00  0.00     0.007 A 
ENDBRANCH   5   6
ENDBRANCH   4   5
BRANCH   4  12
HETATM   12  C2  BES   501      36.847  10.040 196.558  1.00  0.00     0.232 C 
BRANCH  12  13
HETATM   13  O2  BES   501      37.813  10.836 196.003  1.00  0.00    -0.384 OA
HETATM   14  H12 BES   501      38.688  10.779 196.579  1.00  0.00     0.210 HD
ENDBRANCH  12  13
BRANCH  12  15
HETATM   15  C3  BES   501      36.134   9.274 195.482  1.00  0.00     0.249 C 
HETATM   16  O3  BES   501      36.314   8.078 195.438  1.00  0.00    -0.271 OA
HETATM   17  N1  BES   501      35.263   9.997 194.546  1.00  0.00    -0.344 N 
HETATM   18  H23 BES   501      35.160  11.055 194.676  1.00  0.00     0.163 HD
BRANCH  17  19
HETATM   19  C4  BES   501      34.523   9.373 193.450  1.00  0.00     0.185 C 
BRANCH  19  20
HETATM   20  C13 BES   501      33.019   9.569 193.667  1.00  0.00     0.040 C 
BRANCH  20  21
HETATM   21  C14 BES   501      32.292   8.242 193.585  1.00  0.00    -0.020 C 
HETATM   22  C15 BES   501      32.852   7.296 194.648  1.00  0.00     0.009 C 
HETATM   23  C16 BES   501      30.819   8.420 193.777  1.00  0.00     0.009 C 
ENDBRANCH  20  21
ENDBRANCH  19  20
BRANCH  19  24
HETATM   24  C5  BES   501      34.916  10.070 192.189  1.00  0.00     0.196 C 
HETATM   25  O1  BES   501      34.113  10.885 191.656  1.00  0.00    -0.646 OA
HETATM   26  O4  BES   501      36.080   9.840 191.734  1.00  0.00    -0.646 OA
ENDBRANCH  19  24
ENDBRANCH  17  19
ENDBRANCH  12  15
ENDBRANCH   4  12
ENDBRANCH   1   4
TORSDOF 10
ENDMDL
