MODEL 1
REMARK VINA RESULT:     0.000      0.000      0.000
REMARK INTER + INTRA:          -1.539
REMARK INTER:                   0.000
REMARK INTRA:                  -1.539
REMARK UNBOUND:                -1.539
REMARK  8 active torsions:
REMARK  status: ('A' for Active; 'I' for Inactive)
REMARK    1  A    between atoms: C70_1  and  C1_2 
REMARK    2  A    between atoms: C70_1  and  N12_19 
REMARK    3  A    between atoms: C1_2  and  C2_3 
REMARK    4  A    between atoms: C2_3  and  C3_4 
REMARK       I    between atoms: C3_4  and  N1_6 
REMARK    5  A    between atoms: N1_6  and  C4_7 
REMARK    6  A    between atoms: C4_7  and  C13_8 
REMARK    7  A    between atoms: C4_7  and  C5_10 
REMARK    8  A    between atoms: C13_8  and  C7_9 
ROOT
HETATM    1  C70 BES A 501      37.677  17.201 199.162  1.00  6.08     0.230 C 
ENDROOT
BRANCH   1   2
HETATM    2  C1  BES A 501      37.483  15.958 198.526  1.00  6.71     0.036 C 
BRANCH   2   3
HETATM    3  C2  BES A 501      38.575  15.467 197.629  1.00  9.09     0.098 C 
BRANCH   3   4
HETATM    4  C3  BES A 501      38.106  15.539 196.204  1.00  8.29     0.198 C 
HETATM    5  O3  BES A 501      38.694  14.863 195.389  1.00  7.85    -0.280 OA
HETATM    6  N1  BES A 501      36.970  16.408 195.867  1.00  8.97    -0.248 NA
HETATM    7  H7  BES A 501      37.255  17.390 196.185  1.00  8.27     0.131 HD
BRANCH   6   8
HETATM    8  C4  BES A 501      36.425  16.576 194.520  1.00 10.85     0.169 C 
BRANCH   8   9
HETATM    9  C13 BES A 501      35.023  15.962 194.454  1.00  8.22     0.089 C 
BRANCH   9  10
HETATM   10  C7  BES A 501      34.443  15.786 195.870  1.00 11.21     0.029 A 
HETATM   11  C21 BES A 501      34.021  14.452 196.515  1.00  0.00     0.143 A 
HETATM   12  N22 BES A 501      33.501  14.754 197.933  1.00  0.00    -0.254 N 
HETATM   13  C23 BES A 501      33.601  16.273 198.164  1.00  0.00     0.207 A 
HETATM   14  N24 BES A 501      34.183  16.911 196.888  1.00  0.00    -0.353 N 
HETATM   15  H13 BES A 501      34.374  17.953 196.737  1.00  8.23     0.166 HD
ENDBRANCH   9  10
ENDBRANCH   8   9
BRANCH   8  16
HETATM   16  C5  BES A 501      36.314  18.042 194.260  1.00 10.09     0.192 C 
HETATM   17  O1  BES A 501      36.292  18.459 193.068  1.00  5.58    -0.647 OA
HETATM   18  O4  BES A 501      36.201  18.805 195.268  1.00  5.29    -0.647 OA
ENDBRANCH   8  16
ENDBRANCH   6   8
ENDBRANCH   3   4
ENDBRANCH   2   3
ENDBRANCH   1   2
BRANCH   1  19
HETATM   19  N12 BES A 501      37.112  18.311 198.291  1.00  8.22    -0.079 N 
HETATM   20  H14 BES A 501      37.864  18.647 197.608  1.00  8.22     0.274 HD
HETATM   21  H15 BES A 501      36.802  19.127 198.909  1.00  8.22     0.274 HD
HETATM   22  H6  BES A 501      36.272  17.941 197.742  1.00  8.22     0.274 HD
ENDBRANCH   1  19
TORSDOF 8
ENDMDL
MODEL 2
REMARK VINA RESULT:     0.000      5.675      7.608
REMARK INTER + INTRA:          -1.539
REMARK INTER:                   0.000
REMARK INTRA:                  -1.539
REMARK UNBOUND:                -1.539
REMARK  8 active torsions:
REMARK  status: ('A' for Active; 'I' for Inactive)
REMARK    1  A    between atoms: C70_1  and  C1_2 
REMARK    2  A    between atoms: C70_1  and  N12_19 
REMARK    3  A    between atoms: C1_2  and  C2_3 
REMARK    4  A    between atoms: C2_3  and  C3_4 
REMARK       I    between atoms: C3_4  and  N1_6 
REMARK    5  A    between atoms: N1_6  and  C4_7 
REMARK    6  A    between atoms: C4_7  and  C13_8 
REMARK    7  A    between atoms: C4_7  and  C5_10 
REMARK    8  A    between atoms: C13_8  and  C7_9 
ROOT
HETATM    1  C70 BES A 501      44.484  14.233 197.248  1.00  6.08     0.230 C 
ENDROOT
BRANCH   1   2
HETATM    2  C1  BES A 501      43.641  15.348 197.064  1.00  6.71     0.036 C 
BRANCH   2   3
HETATM    3  C2  BES A 501      42.376  15.393 197.864  1.00  9.09     0.098 C 
BRANCH   3   4
HETATM    4  C3  BES A 501      41.209  15.175 196.944  1.00  8.29     0.198 C 
HETATM    5  O3  BES A 501      40.120  15.531 197.332  1.00  7.85    -0.280 OA
HETATM    6  N1  BES A 501      41.438  14.553 195.632  1.00  8.97    -0.248 NA
HETATM    7  H7  BES A 501      41.895  13.607 195.838  1.00  8.27     0.131 HD
BRANCH   6   8
HETATM    8  C4  BES A 501      40.389  14.276 194.651  1.00 10.85     0.169 C 
BRANCH   8   9
HETATM    9  C13 BES A 501      40.575  15.182 193.430  1.00  8.22     0.089 C 
BRANCH   9  10
HETATM   10  C7  BES A 501      42.008  15.748 193.390  1.00 11.21     0.029 A 
HETATM   11  C21 BES A 501      42.393  17.238 193.436  1.00  0.00     0.143 A 
HETATM   12  N22 BES A 501      43.929  17.334 193.373  1.00  0.00    -0.254 N 
HETATM   13  C23 BES A 501      44.493  15.903 193.287  1.00  0.00     0.207 A 
HETATM   14  N24 BES A 501      43.304  14.922 193.298  1.00  0.00    -0.353 N 
HETATM   15  H13 BES A 501      43.369  13.855 193.250  1.00  8.23     0.166 HD
ENDBRANCH   9  10
ENDBRANCH   8   9
BRANCH   8  16
HETATM   16  C5  BES A 501      40.545  12.855 194.216  1.00 10.09     0.192 C 
HETATM   17  O1  BES A 501      39.552  12.245 193.730  1.00  5.58    -0.647 OA
HETATM   18  O4  BES A 501      41.700  12.339 194.318  1.00  5.29    -0.647 OA
ENDBRANCH   8  16
ENDBRANCH   6   8
ENDBRANCH   3   4
ENDBRANCH   2   3
ENDBRANCH   1   2
BRANCH   1  19
HETATM   19  N12 BES A 501      44.115  13.149 196.247  1.00  8.22    -0.079 N 
HETATM   20  H14 BES A 501      43.183  12.706 196.528  1.00  8.22     0.274 HD
HETATM   21  H15 BES A 501      44.877  12.399 196.238  1.00  8.22     0.274 HD
HETATM   22  H6  BES A 501      44.026  13.579 195.272  1.00  8.22     0.274 HD
ENDBRANCH   1  19
TORSDOF 8
ENDMDL
MODEL 3
REMARK VINA RESULT:     0.000      3.576      5.372
REMARK INTER + INTRA:          -1.539
REMARK INTER:                   0.000
REMARK INTRA:                  -1.539
REMARK UNBOUND:                -1.539
REMARK  8 active torsions:
REMARK  status: ('A' for Active; 'I' for Inactive)
REMARK    1  A    between atoms: C70_1  and  C1_2 
REMARK    2  A    between atoms: C70_1  and  N12_19 
REMARK    3  A    between atoms: C1_2  and  C2_3 
REMARK    4  A    between atoms: C2_3  and  C3_4 
REMARK       I    between atoms: C3_4  and  N1_6 
REMARK    5  A    between atoms: N1_6  and  C4_7 
REMARK    6  A    between atoms: C4_7  and  C13_8 
REMARK    7  A    between atoms: C4_7  and  C5_10 
REMARK    8  A    between atoms: C13_8  and  C7_9 
ROOT
HETATM    1  C70 BES A 501      36.226  19.229 202.019  1.00  6.08     0.230 C 
ENDROOT
BRANCH   1   2
HETATM    2  C1  BES A 501      35.079  19.340 201.208  1.00  6.71     0.036 C 
BRANCH   2   3
HETATM    3  C2  BES A 501      33.846  18.620 201.657  1.00  9.09     0.098 C 
BRANCH   3   4
HETATM    4  C3  BES A 501      33.594  17.461 200.737  1.00  8.29     0.198 C 
HETATM    5  O3  BES A 501      32.477  16.995 200.720  1.00  7.85    -0.280 OA
HETATM    6  N1  BES A 501      34.696  16.953 199.906  1.00  8.97    -0.248 NA
HETATM    7  H7  BES A 501      35.473  16.685 200.591  1.00  8.27     0.131 HD
BRANCH   6   8
HETATM    8  C4  BES A 501      34.584  15.827 198.979  1.00 10.85     0.169 C 
BRANCH   8   9
HETATM    9  C13 BES A 501      34.714  16.333 197.539  1.00  8.22     0.089 C 
BRANCH   9  10
HETATM   10  C7  BES A 501      35.362  17.730 197.513  1.00 11.21     0.029 A 
HETATM   11  C21 BES A 501      34.720  19.015 196.958  1.00  0.00     0.143 A 
HETATM   12  N22 BES A 501      35.728  20.166 197.139  1.00  0.00    -0.254 N 
HETATM   13  C23 BES A 501      36.992  19.592 197.805  1.00  0.00     0.207 A 
HETATM   14  N24 BES A 501      36.766  18.085 198.036  1.00  0.00    -0.353 N 
HETATM   15  H13 BES A 501      37.462  17.406 198.481  1.00  8.23     0.166 HD
ENDBRANCH   9  10
ENDBRANCH   8   9
BRANCH   8  16
HETATM   16  C5  BES A 501      35.722  14.900 199.261  1.00 10.09     0.192 C 
HETATM   17  O1  BES A 501      35.628  13.687 198.927  1.00  5.58    -0.647 OA
HETATM   18  O4  BES A 501      36.762  15.400 199.790  1.00  5.29    -0.647 OA
ENDBRANCH   8  16
ENDBRANCH   6   8
ENDBRANCH   3   4
ENDBRANCH   2   3
ENDBRANCH   1   2
BRANCH   1  19
HETATM   19  N12 BES A 501      37.061  18.044 201.559  1.00  8.22    -0.079 N 
HETATM   20  H14 BES A 501      37.434  17.517 202.412  1.00  8.22     0.274 HD
HETATM   21  H15 BES A 501      37.881  18.393 200.969  1.00  8.22     0.274 HD
HETATM   22  H6  BES A 501      36.454  17.386 200.973  1.00  8.22     0.274 HD
ENDBRANCH   1  19
TORSDOF 8
ENDMDL
MODEL 4
REMARK VINA RESULT:     0.000      8.575     11.005
REMARK INTER + INTRA:          -1.538
REMARK INTER:                   0.000
REMARK INTRA:                  -1.538
REMARK UNBOUND:                -1.539
REMARK  8 active torsions:
REMARK  status: ('A' for Active; 'I' for Inactive)
REMARK    1  A    between atoms: C70_1  and  C1_2 
REMARK    2  A    between atoms: C70_1  and  N12_19 
REMARK    3  A    between atoms: C1_2  and  C2_3 
REMARK    4  A    between atoms: C2_3  and  C3_4 
REMARK       I    between atoms: C3_4  and  N1_6 
REMARK    5  A    between atoms: N1_6  and  C4_7 
REMARK    6  A    between atoms: C4_7  and  C13_8 
REMARK    7  A    between atoms: C4_7  and  C5_10 
REMARK    8  A    between atoms: C13_8  and  C7_9 
ROOT
HETATM    1  C70 BES A 501      41.947  20.470 199.965  1.00  6.08     0.230 C 
ENDROOT
BRANCH   1   2
HETATM    2  C1  BES A 501      43.166  20.974 200.461  1.00  6.71     0.036 C 
BRANCH   2   3
HETATM    3  C2  BES A 501      44.394  20.732 199.640  1.00  9.09     0.098 C 
BRANCH   3   4
HETATM    4  C3  BES A 501      45.265  19.733 200.347  1.00  8.29     0.198 C 
HETATM    5  O3  BES A 501      46.432  19.689 200.030  1.00  7.85    -0.280 OA
HETATM    6  N1  BES A 501      44.673  18.871 201.380  1.00  8.97    -0.248 NA
HETATM    7  H7  BES A 501      43.874  18.348 200.895  1.00  8.27     0.131 HD
BRANCH   6   8
HETATM    8  C4  BES A 501      45.407  17.854 202.132  1.00 10.85     0.169 C 
BRANCH   8   9
HETATM    9  C13 BES A 501      45.518  18.281 203.599  1.00  8.22     0.089 C 
BRANCH   9  10
HETATM   10  C7  BES A 501      44.470  19.361 203.928  1.00 11.21     0.029 A 
HETATM   11  C21 BES A 501      44.768  20.789 204.422  1.00  0.00     0.143 A 
HETATM   12  N22 BES A 501      43.424  21.514 204.619  1.00  0.00    -0.254 N 
HETATM   13  C23 BES A 501      42.295  20.534 204.248  1.00  0.00     0.207 A 
HETATM   14  N24 BES A 501      42.942  19.203 203.821  1.00  0.00    -0.353 N 
HETATM   15  H13 BES A 501      42.422  18.323 203.505  1.00  8.23     0.166 HD
ENDBRANCH   9  10
ENDBRANCH   8   9
BRANCH   8  16
HETATM   16  C5  BES A 501      44.617  16.588 202.064  1.00 10.09     0.192 C 
HETATM   17  O1  BES A 501      45.202  15.484 202.243  1.00  5.58    -0.647 OA
HETATM   18  O4  BES A 501      43.367  16.692 201.871  1.00  5.29    -0.647 OA
ENDBRANCH   8  16
ENDBRANCH   6   8
ENDBRANCH   3   4
ENDBRANCH   2   3
ENDBRANCH   1   2
BRANCH   1  19
HETATM   19  N12 BES A 501      41.720  19.067 200.505  1.00  8.22    -0.079 N 
HETATM   20  H14 BES A 501      41.147  18.502 199.800  1.00  8.22     0.274 HD
HETATM   21  H15 BES A 501      41.191  19.122 201.432  1.00  8.22     0.274 HD
HETATM   22  H6  BES A 501      42.664  18.588 200.661  1.00  8.22     0.274 HD
ENDBRANCH   1  19
TORSDOF 8
ENDMDL
MODEL 5
REMARK VINA RESULT:     0.000      6.166      7.977
REMARK INTER + INTRA:          -1.538
REMARK INTER:                   0.000
REMARK INTRA:                  -1.538
REMARK UNBOUND:                -1.539
REMARK  8 active torsions:
REMARK  status: ('A' for Active; 'I' for Inactive)
REMARK    1  A    between atoms: C70_1  and  C1_2 
REMARK    2  A    between atoms: C70_1  and  N12_19 
REMARK    3  A    between atoms: C1_2  and  C2_3 
REMARK    4  A    between atoms: C2_3  and  C3_4 
REMARK       I    between atoms: C3_4  and  N1_6 
REMARK    5  A    between atoms: N1_6  and  C4_7 
REMARK    6  A    between atoms: C4_7  and  C13_8 
REMARK    7  A    between atoms: C4_7  and  C5_10 
REMARK    8  A    between atoms: C13_8  and  C7_9 
ROOT
HETATM    1  C70 BES A 501      41.066  13.094 198.604  1.00  6.08     0.230 C 
ENDROOT
BRANCH   1   2
HETATM    2  C1  BES A 501      40.501  13.535 197.391  1.00  6.71     0.036 C 
BRANCH   2   3
HETATM    3  C2  BES A 501      39.882  12.499 196.505  1.00  9.09     0.098 C 
BRANCH   3   4
HETATM    4  C3  BES A 501      40.745  12.319 195.289  1.00  8.29     0.198 C 
HETATM    5  O3  BES A 501      40.236  11.809 194.315  1.00  7.85    -0.280 OA
HETATM    6  N1  BES A 501      42.144  12.768 195.330  1.00  8.97    -0.248 NA
HETATM    7  H7  BES A 501      42.590  12.242 196.149  1.00  8.27     0.131 HD
BRANCH   6   8
HETATM    8  C4  BES A 501      43.089  12.641 194.220  1.00 10.85     0.169 C 
BRANCH   8   9
HETATM    9  C13 BES A 501      43.433  14.031 193.677  1.00  8.22     0.089 C 
BRANCH   9  10
HETATM   10  C7  BES A 501      43.073  15.118 194.708  1.00 11.21     0.029 A 
HETATM   11  C21 BES A 501      42.069  16.267 194.498  1.00  0.00     0.143 A 
HETATM   12  N22 BES A 501      42.030  17.105 195.789  1.00  0.00    -0.254 N 
HETATM   13  C23 BES A 501      43.010  16.476 196.797  1.00  0.00     0.207 A 
HETATM   14  N24 BES A 501      43.655  15.247 196.128  1.00  0.00    -0.353 N 
HETATM   15  H13 BES A 501      44.380  14.597 196.572  1.00  8.23     0.166 HD
ENDBRANCH   9  10
ENDBRANCH   8   9
BRANCH   8  16
HETATM   16  C5  BES A 501      44.336  12.021 194.762  1.00 10.09     0.192 C 
HETATM   17  O1  BES A 501      45.117  11.416 193.976  1.00  5.58    -0.647 OA
HETATM   18  O4  BES A 501      44.573  12.176 195.999  1.00  5.29    -0.647 OA
ENDBRANCH   8  16
ENDBRANCH   6   8
ENDBRANCH   3   4
ENDBRANCH   2   3
ENDBRANCH   1   2
BRANCH   1  19
HETATM   19  N12 BES A 501      42.537  12.769 198.390  1.00  8.22    -0.079 N 
HETATM   20  H14 BES A 501      43.138  13.563 198.780  1.00  8.22     0.274 HD
HETATM   21  H15 BES A 501      42.729  12.657 197.344  1.00  8.22     0.274 HD
HETATM   22  H6  BES A 501      42.778  11.858 198.897  1.00  8.22     0.274 HD
ENDBRANCH   1  19
TORSDOF 8
ENDMDL
MODEL 6
REMARK VINA RESULT:     0.000      2.579      4.671
REMARK INTER + INTRA:          -1.538
REMARK INTER:                   0.000
REMARK INTRA:                  -1.538
REMARK UNBOUND:                -1.539
REMARK  8 active torsions:
REMARK  status: ('A' for Active; 'I' for Inactive)
REMARK    1  A    between atoms: C70_1  and  C1_2 
REMARK    2  A    between atoms: C70_1  and  N12_19 
REMARK    3  A    between atoms: C1_2  and  C2_3 
REMARK    4  A    between atoms: C2_3  and  C3_4 
REMARK       I    between atoms: C3_4  and  N1_6 
REMARK    5  A    between atoms: N1_6  and  C4_7 
REMARK    6  A    between atoms: C4_7  and  C13_8 
REMARK    7  A    between atoms: C4_7  and  C5_10 
REMARK    8  A    between atoms: C13_8  and  C7_9 
ROOT
HETATM    1  C70 BES A 501      32.075  18.417 193.462  1.00  6.08     0.230 C 
ENDROOT
BRANCH   1   2
HETATM    2  C1  BES A 501      33.241  18.956 194.041  1.00  6.71     0.036 C 
BRANCH   2   3
HETATM    3  C2  BES A 501      34.233  19.596 193.121  1.00  9.09     0.098 C 
BRANCH   3   4
HETATM    4  C3  BES A 501      35.455  18.726 193.041  1.00  8.29     0.198 C 
HETATM    5  O3  BES A 501      36.479  19.239 192.648  1.00  7.85    -0.280 OA
HETATM    6  N1  BES A 501      35.357  17.315 193.440  1.00  8.97    -0.248 NA
HETATM    7  H7  BES A 501      34.594  16.893 192.820  1.00  8.27     0.131 HD
BRANCH   6   8
HETATM    8  C4  BES A 501      36.467  16.362 193.399  1.00 10.85     0.169 C 
BRANCH   8   9
HETATM    9  C13 BES A 501      36.862  15.972 194.827  1.00  8.22     0.089 C 
BRANCH   9  10
HETATM   10  C7  BES A 501      35.728  16.310 195.813  1.00 11.21     0.029 A 
HETATM   11  C21 BES A 501      35.826  17.278 197.007  1.00  0.00     0.143 A 
HETATM   12  N22 BES A 501      34.456  17.306 197.710  1.00  0.00    -0.254 N 
HETATM   13  C23 BES A 501      33.512  16.356 196.951  1.00  0.00     0.207 A 
HETATM   14  N24 BES A 501      34.298  15.740 195.777  1.00  0.00    -0.353 N 
HETATM   15  H13 BES A 501      33.917  15.040 195.064  1.00  8.23     0.166 HD
ENDBRANCH   9  10
ENDBRANCH   8   9
BRANCH   8  16
HETATM   16  C5  BES A 501      35.982  15.140 192.690  1.00 10.09     0.192 C 
HETATM   17  O1  BES A 501      36.820  14.368 192.146  1.00  5.58    -0.647 OA
HETATM   18  O4  BES A 501      34.734  14.912 192.709  1.00  5.29    -0.647 OA
ENDBRANCH   8  16
ENDBRANCH   6   8
ENDBRANCH   3   4
ENDBRANCH   2   3
ENDBRANCH   1   2
BRANCH   1  19
HETATM   19  N12 BES A 501      32.310  16.955 193.116  1.00  8.22    -0.079 N 
HETATM   20  H14 BES A 501      33.317  16.688 193.360  1.00  8.22     0.274 HD
HETATM   21  H15 BES A 501      32.144  16.804 192.071  1.00  8.22     0.274 HD
HETATM   22  H6  BES A 501      31.634  16.343 193.676  1.00  8.22     0.274 HD
ENDBRANCH   1  19
TORSDOF 8
ENDMDL
MODEL 7
REMARK VINA RESULT:     0.001      2.268      3.879
REMARK INTER + INTRA:          -1.538
REMARK INTER:                   0.000
REMARK INTRA:                  -1.538
REMARK UNBOUND:                -1.539
REMARK  8 active torsions:
REMARK  status: ('A' for Active; 'I' for Inactive)
REMARK    1  A    between atoms: C70_1  and  C1_2 
REMARK    2  A    between atoms: C70_1  and  N12_19 
REMARK    3  A    between atoms: C1_2  and  C2_3 
REMARK    4  A    between atoms: C2_3  and  C3_4 
REMARK       I    between atoms: C3_4  and  N1_6 
REMARK    5  A    between atoms: N1_6  and  C4_7 
REMARK    6  A    between atoms: C4_7  and  C13_8 
REMARK    7  A    between atoms: C4_7  and  C5_10 
REMARK    8  A    between atoms: C13_8  and  C7_9 
ROOT
HETATM    1  C70 BES A 501      36.827  18.352 198.213  1.00  6.08     0.230 C 
ENDROOT
BRANCH   1   2
HETATM    2  C1  BES A 501      37.615  18.251 197.049  1.00  6.71     0.036 C 
BRANCH   2   3
HETATM    3  C2  BES A 501      37.160  19.013 195.843  1.00  9.09     0.098 C 
BRANCH   3   4
HETATM    4  C3  BES A 501      36.662  18.042 194.811  1.00  8.29     0.198 C 
HETATM    5  O3  BES A 501      36.597  18.430 193.666  1.00  7.85    -0.280 OA
HETATM    6  N1  BES A 501      36.287  16.683 195.228  1.00  8.97    -0.248 NA
HETATM    7  H7  BES A 501      35.530  16.810 195.973  1.00  8.27     0.131 HD
BRANCH   6   8
HETATM    8  C4  BES A 501      35.780  15.649 194.326  1.00 10.85     0.169 C 
BRANCH   8   9
HETATM    9  C13 BES A 501      36.814  14.527 194.197  1.00  8.22     0.089 C 
BRANCH   9  10
HETATM   10  C7  BES A 501      37.822  14.585 195.361  1.00 11.21     0.029 A 
HETATM   11  C21 BES A 501      39.344  14.786 195.231  1.00  0.00     0.143 A 
HETATM   12  N22 BES A 501      39.947  14.778 196.647  1.00  0.00    -0.254 N 
HETATM   13  C23 BES A 501      38.799  14.573 197.653  1.00  0.00     0.207 A 
HETATM   14  N24 BES A 501      37.485  14.453 196.858  1.00  0.00    -0.353 N 
HETATM   15  H13 BES A 501      36.510  14.305 197.272  1.00  8.23     0.166 HD
ENDBRANCH   9  10
ENDBRANCH   8   9
BRANCH   8  16
HETATM   16  C5  BES A 501      34.541  15.085 194.941  1.00 10.09     0.192 C 
HETATM   17  O1  BES A 501      33.689  14.515 194.205  1.00  5.58    -0.647 OA
HETATM   18  O4  BES A 501      34.428  15.170 196.203  1.00  5.29    -0.647 OA
ENDBRANCH   8  16
ENDBRANCH   6   8
ENDBRANCH   3   4
ENDBRANCH   2   3
ENDBRANCH   1   2
BRANCH   1  19
HETATM   19  N12 BES A 501      35.788  17.241 198.221  1.00  8.22    -0.079 N 
HETATM   20  H14 BES A 501      35.106  17.397 199.030  1.00  8.22     0.274 HD
HETATM   21  H15 BES A 501      36.275  16.297 198.341  1.00  8.22     0.274 HD
HETATM   22  H6  BES A 501      35.251  17.249 197.296  1.00  8.22     0.274 HD
ENDBRANCH   1  19
TORSDOF 8
ENDMDL
MODEL 8
REMARK VINA RESULT:     0.001      5.578      6.906
REMARK INTER + INTRA:          -1.538
REMARK INTER:                   0.000
REMARK INTRA:                  -1.538
REMARK UNBOUND:                -1.539
REMARK  8 active torsions:
REMARK  status: ('A' for Active; 'I' for Inactive)
REMARK    1  A    between atoms: C70_1  and  C1_2 
REMARK    2  A    between atoms: C70_1  and  N12_19 
REMARK    3  A    between atoms: C1_2  and  C2_3 
REMARK    4  A    between atoms: C2_3  and  C3_4 
REMARK       I    between atoms: C3_4  and  N1_6 
REMARK    5  A    between atoms: N1_6  and  C4_7 
REMARK    6  A    between atoms: C4_7  and  C13_8 
REMARK    7  A    between atoms: C4_7  and  C5_10 
REMARK    8  A    between atoms: C13_8  and  C7_9 
ROOT
HETATM    1  C70 BES A 501      35.599  10.317 196.798  1.00  6.08     0.230 C 
ENDROOT
BRANCH   1   2
HETATM    2  C1  BES A 501      36.940  10.738 196.699  1.00  6.71     0.036 C 
BRANCH   2   3
HETATM    3  C2  BES A 501      37.211  12.205 196.819  1.00  9.09     0.098 C 
BRANCH   3   4
HETATM    4  C3  BES A 501      37.622  12.737 195.476  1.00  8.29     0.198 C 
HETATM    5  O3  BES A 501      38.216  13.792 195.452  1.00  7.85    -0.280 OA
HETATM    6  N1  BES A 501      37.294  11.965 194.269  1.00  8.97    -0.248 NA
HETATM    7  H7  BES A 501      36.230  11.849 194.281  1.00  8.27     0.131 HD
BRANCH   6   8
HETATM    8  C4  BES A 501      37.627  12.377 192.905  1.00 10.85     0.169 C 
BRANCH   8   9
HETATM    9  C13 BES A 501      38.685  11.431 192.327  1.00  8.22     0.089 C 
BRANCH   9  10
HETATM   10  C7  BES A 501      38.733  10.118 193.131  1.00 11.21     0.029 A 
HETATM   11  C21 BES A 501      39.952   9.569 193.895  1.00  0.00     0.143 A 
HETATM   12  N22 BES A 501      39.543   8.236 194.548  1.00  0.00    -0.254 N 
HETATM   13  C23 BES A 501      38.071   7.960 194.187  1.00  0.00     0.207 A 
HETATM   14  N24 BES A 501      37.570   9.124 193.311  1.00  0.00    -0.353 N 
HETATM   15  H13 BES A 501      36.588   9.224 192.900  1.00  8.23     0.166 HD
ENDBRANCH   9  10
ENDBRANCH   8   9
BRANCH   8  16
HETATM   16  C5  BES A 501      36.385  12.258 192.085  1.00 10.09     0.192 C 
HETATM   17  O1  BES A 501      36.275  12.937 191.026  1.00  5.58    -0.647 OA
HETATM   18  O4  BES A 501      35.505  11.432 192.477  1.00  5.29    -0.647 OA
ENDBRANCH   8  16
ENDBRANCH   6   8
ENDBRANCH   3   4
ENDBRANCH   2   3
ENDBRANCH   1   2
BRANCH   1  19
HETATM   19  N12 BES A 501      34.973  10.284 195.412  1.00  8.22    -0.079 N 
HETATM   20  H14 BES A 501      35.696   9.942 194.703  1.00  8.22     0.274 HD
HETATM   21  H15 BES A 501      34.648  11.267 195.145  1.00  8.22     0.274 HD
HETATM   22  H6  BES A 501      34.135   9.620 195.415  1.00  8.22     0.274 HD
ENDBRANCH   1  19
TORSDOF 8
ENDMDL
MODEL 9
REMARK VINA RESULT:     0.001      6.074      7.447
REMARK INTER + INTRA:          -1.537
REMARK INTER:                   0.000
REMARK INTRA:                  -1.537
REMARK UNBOUND:                -1.539
REMARK  8 active torsions:
REMARK  status: ('A' for Active; 'I' for Inactive)
REMARK    1  A    between atoms: C70_1  and  C1_2 
REMARK    2  A    between atoms: C70_1  and  N12_19 
REMARK    3  A    between atoms: C1_2  and  C2_3 
REMARK    4  A    between atoms: C2_3  and  C3_4 
REMARK       I    between atoms: C3_4  and  N1_6 
REMARK    5  A    between atoms: N1_6  and  C4_7 
REMARK    6  A    between atoms: C4_7  and  C13_8 
REMARK    7  A    between atoms: C4_7  and  C5_10 
REMARK    8  A    between atoms: C13_8  and  C7_9 
ROOT
HETATM    1  C70 BES A 501      43.245  10.713 197.109  1.00  6.08     0.230 C 
ENDROOT
BRANCH   1   2
HETATM    2  C1  BES A 501      42.054  11.397 197.428  1.00  6.71     0.036 C 
BRANCH   2   3
HETATM    3  C2  BES A 501      40.817  11.006 196.683  1.00  9.09     0.098 C 
BRANCH   3   4
HETATM    4  C3  BES A 501      40.440  12.118 195.746  1.00  8.29     0.198 C 
HETATM    5  O3  BES A 501      39.299  12.142 195.341  1.00  7.85    -0.280 OA
HETATM    6  N1  BES A 501      41.454  13.114 195.372  1.00  8.97    -0.248 NA
HETATM    7  H7  BES A 501      42.258  12.556 194.938  1.00  8.27     0.131 HD
BRANCH   6   8
HETATM    8  C4  BES A 501      41.219  14.236 194.463  1.00 10.85     0.169 C 
BRANCH   8   9
HETATM    9  C13 BES A 501      41.280  15.552 195.244  1.00  8.22     0.089 C 
BRANCH   9  10
HETATM   10  C7  BES A 501      42.003  15.348 196.589  1.00 11.21     0.029 A 
HETATM   11  C21 BES A 501      41.398  15.584 197.986  1.00  0.00     0.143 A 
HETATM   12  N22 BES A 501      42.478  15.255 199.033  1.00  0.00    -0.254 N 
HETATM   13  C23 BES A 501      43.750  14.817 198.284  1.00  0.00     0.207 A 
HETATM   14  N24 BES A 501      43.456  14.875 196.773  1.00  0.00    -0.353 N 
HETATM   15  H13 BES A 501      44.141  14.629 195.989  1.00  8.23     0.166 HD
ENDBRANCH   9  10
ENDBRANCH   8   9
BRANCH   8  16
HETATM   16  C5  BES A 501      42.319  14.232 193.452  1.00 10.09     0.192 C 
HETATM   17  O1  BES A 501      42.137  14.793 192.337  1.00  5.58    -0.647 OA
HETATM   18  O4  BES A 501      43.419  13.694 193.791  1.00  5.29    -0.647 OA
ENDBRANCH   8  16
ENDBRANCH   6   8
ENDBRANCH   3   4
ENDBRANCH   2   3
ENDBRANCH   1   2
BRANCH   1  19
HETATM   19  N12 BES A 501      43.981  11.463 196.009  1.00  8.22    -0.079 N 
HETATM   20  H14 BES A 501      43.295  12.100 195.492  1.00  8.22     0.274 HD
HETATM   21  H15 BES A 501      44.405  10.762 195.322  1.00  8.22     0.274 HD
HETATM   22  H6  BES A 501      44.761  12.054 196.441  1.00  8.22     0.274 HD
ENDBRANCH   1  19
TORSDOF 8
ENDMDL
