MODEL 1
REMARK VINA RESULT:    -3.336      0.000      0.000
REMARK INTER + INTRA:          -7.661
REMARK INTER:                  -5.481
REMARK INTRA:                  -2.179
REMARK UNBOUND:                -2.179
REMARK  10 active torsions:
REMARK  status: ('A' for Active; 'I' for Inactive)
REMARK    1  A    between atoms: O1_1  and  C12_12 
REMARK    2  A    between atoms: O2_2  and  C13_13 
REMARK    3  A    between atoms: O3_3  and  C18_18 
REMARK    4  A    between atoms: O4_4  and  C19_19 
REMARK    5  A    between atoms: C7_7  and  C16_16 
REMARK    6  A    between atoms: C8_8  and  C17_17 
REMARK    7  A    between atoms: C9_9  and  C21_21 
REMARK    8  A    between atoms: C9_9  and  C20_20 
REMARK    9  A    between atoms: C20_20  and  C24_24 
REMARK   10  A    between atoms: C21_21  and  C25_25 
ROOT
HETATM    1  O1          0      34.189  22.140 198.777  1.00  0.00    -0.353 OA
HETATM    2  C26         0      34.578  21.777 200.103  1.00  0.00     0.210 C 
ENDROOT
BRANCH   1   3
HETATM    3  C12         0      34.429  21.096 197.857  1.00  0.00     0.102 A 
HETATM    4  C18         0      35.119  21.371 196.753  1.00  0.00     0.099 A 
HETATM    5  C22         0      35.385  20.306 195.774  1.00  0.00     0.040 A 
HETATM    6  C14         0      34.942  19.059 195.983  1.00  0.00     0.014 A 
HETATM    7  C7          0      34.174  18.727 197.201  1.00  0.00    -0.033 A 
HETATM    8  C10         0      33.932  19.701 198.093  1.00  0.00     0.051 A 
BRANCH   4   9
HETATM    9  O3          0      35.582  22.681 196.538  1.00  0.00    -0.358 OA
HETATM   10  H40         0      36.457  22.811 196.983  1.00  0.00     0.217 HD
ENDBRANCH   4   9
BRANCH   7  11
HETATM   11  C16         0      33.659  17.302 197.453  1.00  0.00     0.015 C 
HETATM   12  C24         0      34.349  16.357 198.132  1.00  0.00     0.051 C 
BRANCH  12  13
HETATM   13  C20         0      33.776  14.942 198.352  1.00  0.00     0.156 C 
HETATM   14  O5          0      33.342  14.641 199.470  1.00  0.00    -0.293 OA
BRANCH  13  15
HETATM   15  C9          0      33.732  13.878 197.184  1.00  0.00     0.165 C 
BRANCH  15  16
HETATM   16  C21         0      35.086  13.700 196.387  1.00  0.00     0.156 C 
HETATM   17  O6          0      36.055  13.165 196.938  1.00  0.00    -0.293 OA
BRANCH  16  18
HETATM   18  C25         0      35.231  14.180 194.928  1.00  0.00     0.051 C 
HETATM   19  C17         0      34.767  15.388 194.534  1.00  0.00     0.015 C 
BRANCH  19  20
HETATM   20  C8          0      34.881  15.925 193.098  1.00  0.00    -0.033 A 
HETATM   21  C15         0      35.273  15.042 191.980  1.00  0.00     0.014 A 
HETATM   22  C23         0      35.368  15.522 190.733  1.00  0.00     0.040 A 
HETATM   23  C19         0      35.084  16.938 190.449  1.00  0.00     0.099 A 
HETATM   24  C13         0      34.729  17.751 191.441  1.00  0.00     0.102 A 
HETATM   25  C11         0      34.622  17.217 192.837  1.00  0.00     0.051 A 
BRANCH  23  26
HETATM   26  O4          0      35.182  17.445 189.142  1.00  0.00    -0.358 OA
HETATM   27  H41         0      35.109  18.432 189.153  1.00  0.00     0.217 HD
ENDBRANCH  23  26
BRANCH  24  28
HETATM   28  O2          0      34.463  19.104 191.136  1.00  0.00    -0.353 OA
HETATM   29  C27         0      34.990  19.984 192.131  1.00  0.00     0.210 C 
ENDBRANCH  24  28
ENDBRANCH  19  20
ENDBRANCH  16  18
ENDBRANCH  15  16
ENDBRANCH  13  15
ENDBRANCH  12  13
ENDBRANCH   7  11
ENDBRANCH   1   3
TORSDOF 10
REMARK  2 active torsions:
REMARK  status: ('A' for Active; 'I' for Inactive)
REMARK    1  A    between atoms: C9_9  and  C13_13 
REMARK    2  A    between atoms: C10_10  and  C14_14 
ROOT
HETATM    1  O1          0      37.722  15.961 197.016  1.00  0.00    -0.380 OA
HETATM    2  O2          0      38.205  20.027 198.046  1.00  0.00    -0.380 OA
HETATM    3  C7          0      38.951  17.912 197.065  1.00  0.00     0.052 C 
HETATM    4  C8          0      38.545  17.779 198.433  1.00  0.00     0.052 C 
HETATM    5  C9          0      37.804  17.226 196.269  1.00  0.00     0.161 C 
HETATM    6  C10         0      37.467  18.887 198.610  1.00  0.00     0.161 C 
HETATM    7  C11         0      38.152  16.271 198.468  1.00  0.00     0.176 C 
HETATM    8  C12         0      39.167  19.454 196.982  1.00  0.00     0.176 C 
ENDROOT
BRANCH   5   9
HETATM    9  C13         0      38.182  17.041 194.764  1.00  0.00    -0.026 A 
HETATM   10  C15         0      38.041  18.093 193.927  1.00  0.00     0.049 A 
HETATM   11  C19         0      38.297  17.863 192.493  1.00  0.00     0.105 A 
HETATM   12  O3          0      38.210  18.774 191.499  1.00  0.00    -0.323 OA
HETATM   13  C23         0      38.615  16.715 192.024  1.00  0.00     0.105 A 
HETATM   14  C25         0      38.509  18.113 190.246  1.00  0.00     0.352 A 
HETATM   15  O5          0      38.770  16.762 190.683  1.00  0.00    -0.323 OA
HETATM   16  C21         0      38.776  15.546 192.877  1.00  0.00     0.040 A 
HETATM   17  C17         0      38.571  15.708 194.194  1.00  0.00     0.012 A 
ENDBRANCH   5   9
BRANCH   6  18
HETATM   18  C14         0      37.079  19.073 200.112  1.00  0.00    -0.026 A 
HETATM   19  C18         0      35.980  18.281 200.759  1.00  0.00     0.012 A 
HETATM   20  C22         0      35.740  18.368 202.079  1.00  0.00     0.040 A 
HETATM   21  C24         0      36.583  19.268 202.855  1.00  0.00     0.105 A 
HETATM   22  O6          0      36.510  19.492 204.183  1.00  0.00    -0.323 OA
HETATM   23  C20         0      37.516  19.960 202.319  1.00  0.00     0.105 A 
HETATM   24  C26         0      37.533  20.447 204.537  1.00  0.00     0.352 A 
HETATM   25  O4          0      38.148  20.707 203.253  1.00  0.00    -0.323 OA
HETATM   26  C16         0      37.835  19.889 200.881  1.00  0.00     0.049 A 
ENDBRANCH   6  18
TORSDOF 2
ENDMDL
MODEL 2
REMARK VINA RESULT:    -3.315      4.199      9.375
REMARK INTER + INTRA:          -7.627
REMARK INTER:                  -5.203
REMARK INTRA:                  -2.424
REMARK UNBOUND:                -2.179
REMARK  10 active torsions:
REMARK  status: ('A' for Active; 'I' for Inactive)
REMARK    1  A    between atoms: O1_1  and  C12_12 
REMARK    2  A    between atoms: O2_2  and  C13_13 
REMARK    3  A    between atoms: O3_3  and  C18_18 
REMARK    4  A    between atoms: O4_4  and  C19_19 
REMARK    5  A    between atoms: C7_7  and  C16_16 
REMARK    6  A    between atoms: C8_8  and  C17_17 
REMARK    7  A    between atoms: C9_9  and  C21_21 
REMARK    8  A    between atoms: C9_9  and  C20_20 
REMARK    9  A    between atoms: C20_20  and  C24_24 
REMARK   10  A    between atoms: C21_21  and  C25_25 
ROOT
HETATM    1  O1          0      35.155  11.614 197.045  1.00  0.00    -0.353 OA
HETATM    2  C26         0      35.178  10.223 197.373  1.00  0.00     0.210 C 
ENDROOT
BRANCH   1   3
HETATM    3  C12         0      35.640  11.853 195.741  1.00  0.00     0.102 A 
HETATM    4  C18         0      34.804  12.358 194.839  1.00  0.00     0.099 A 
HETATM    5  C22         0      35.278  12.619 193.470  1.00  0.00     0.040 A 
HETATM    6  C14         0      36.543  12.354 193.123  1.00  0.00     0.014 A 
HETATM    7  C7          0      37.493  11.793 194.107  1.00  0.00    -0.033 A 
HETATM    8  C10         0      37.058  11.556 195.355  1.00  0.00     0.051 A 
BRANCH   4   9
HETATM    9  O3          0      33.476  12.635 195.206  1.00  0.00    -0.358 OA
HETATM   10  H40         0      33.271  12.221 196.082  1.00  0.00     0.217 HD
ENDBRANCH   4   9
BRANCH   7  11
HETATM   11  C16         0      38.947  11.483 193.723  1.00  0.00     0.015 C 
HETATM   12  C24         0      39.743  12.329 193.028  1.00  0.00     0.051 C 
BRANCH  12  13
HETATM   13  C20         0      41.197  11.958 192.673  1.00  0.00     0.156 C 
HETATM   14  O5          0      41.767  12.578 191.767  1.00  0.00    -0.293 OA
BRANCH  13  15
HETATM   15  C9          0      41.968  10.810 193.438  1.00  0.00     0.165 C 
BRANCH  15  16
HETATM   16  C21         0      42.614  11.238 194.817  1.00  0.00     0.156 C 
HETATM   17  O6          0      43.843  11.353 194.906  1.00  0.00    -0.293 OA
BRANCH  16  18
HETATM   18  C25         0      41.747  11.517 196.061  1.00  0.00     0.051 C 
HETATM   19  C17         0      41.256  12.752 196.317  1.00  0.00     0.015 C 
BRANCH  19  20
HETATM   20  C8          0      40.388  13.095 197.537  1.00  0.00    -0.033 A 
HETATM   21  C15         0      40.595  14.345 198.296  1.00  0.00     0.014 A 
HETATM   22  C23         0      39.830  14.633 199.358  1.00  0.00     0.040 A 
HETATM   23  C19         0      38.768  13.711 199.792  1.00  0.00     0.099 A 
HETATM   24  C13         0      38.565  12.579 199.123  1.00  0.00     0.102 A 
HETATM   25  C11         0      39.419  12.254 197.934  1.00  0.00     0.051 A 
BRANCH  23  26
HETATM   26  O4          0      37.965  14.009 200.905  1.00  0.00    -0.358 OA
HETATM   27  H41         0      38.230  14.880 201.294  1.00  0.00     0.217 HD
ENDBRANCH  23  26
BRANCH  24  28
HETATM   28  O2          0      37.538  11.715 199.564  1.00  0.00    -0.353 OA
HETATM   29  C27         0      38.038  10.411 199.869  1.00  0.00     0.210 C 
ENDBRANCH  24  28
ENDBRANCH  19  20
ENDBRANCH  16  18
ENDBRANCH  15  16
ENDBRANCH  13  15
ENDBRANCH  12  13
ENDBRANCH   7  11
ENDBRANCH   1   3
TORSDOF 10
REMARK  2 active torsions:
REMARK  status: ('A' for Active; 'I' for Inactive)
REMARK    1  A    between atoms: C9_9  and  C13_13 
REMARK    2  A    between atoms: C10_10  and  C14_14 
ROOT
HETATM    1  O1          0      38.154  15.347 193.205  1.00  0.00    -0.380 OA
HETATM    2  O2          0      41.446  16.451 195.607  1.00  0.00    -0.380 OA
HETATM    3  C7          0      39.204  16.777 194.678  1.00  0.00     0.052 C 
HETATM    4  C8          0      40.206  16.599 193.668  1.00  0.00     0.052 C 
HETATM    5  C9          0      38.407  15.441 194.651  1.00  0.00     0.161 C 
HETATM    6  C10         0      41.271  15.697 194.356  1.00  0.00     0.161 C 
HETATM    7  C11         0      39.333  16.051 192.497  1.00  0.00     0.176 C 
HETATM    8  C12         0      40.098  17.146 195.902  1.00  0.00     0.176 C 
ENDROOT
BRANCH   5   9
HETATM    9  C13         0      37.105  15.533 195.510  1.00  0.00    -0.026 A 
HETATM   10  C15         0      37.130  15.055 196.775  1.00  0.00     0.049 A 
HETATM   11  C19         0      35.861  15.051 197.527  1.00  0.00     0.105 A 
HETATM   12  O3          0      35.671  14.618 198.793  1.00  0.00    -0.323 OA
HETATM   13  C23         0      34.756  15.451 197.019  1.00  0.00     0.105 A 
HETATM   14  C25         0      34.268  14.762 199.120  1.00  0.00     0.352 A 
HETATM   15  O5          0      33.740  15.323 197.899  1.00  0.00    -0.323 OA
HETATM   16  C21         0      34.669  15.969 195.661  1.00  0.00     0.040 A 
HETATM   17  C17         0      35.802  16.010 194.940  1.00  0.00     0.012 A 
ENDBRANCH   5   9
BRANCH   6  18
HETATM   18  C14         0      42.574  15.595 193.499  1.00  0.00    -0.026 A 
HETATM   19  C18         0      42.864  16.538 192.368  1.00  0.00     0.012 A 
HETATM   20  C22         0      44.041  16.511 191.720  1.00  0.00     0.040 A 
HETATM   21  C24         0      45.022  15.525 192.155  1.00  0.00     0.105 A 
HETATM   22  O6          0      46.257  15.339 191.644  1.00  0.00    -0.323 OA
HETATM   23  C20         0      44.788  14.705 193.109  1.00  0.00     0.105 A 
HETATM   24  C26         0      46.890  14.267 192.372  1.00  0.00     0.352 A 
HETATM   25  O4          0      45.856  13.901 193.316  1.00  0.00    -0.323 OA
HETATM   26  C16         0      43.521  14.704 193.866  1.00  0.00     0.049 A 
ENDBRANCH   6  18
TORSDOF 2
ENDMDL
MODEL 3
REMARK VINA RESULT:    -3.309      4.423      8.411
REMARK INTER + INTRA:          -7.617
REMARK INTER:                  -5.497
REMARK INTRA:                  -2.120
REMARK UNBOUND:                -2.179
REMARK  10 active torsions:
REMARK  status: ('A' for Active; 'I' for Inactive)
REMARK    1  A    between atoms: O1_1  and  C12_12 
REMARK    2  A    between atoms: O2_2  and  C13_13 
REMARK    3  A    between atoms: O3_3  and  C18_18 
REMARK    4  A    between atoms: O4_4  and  C19_19 
REMARK    5  A    between atoms: C7_7  and  C16_16 
REMARK    6  A    between atoms: C8_8  and  C17_17 
REMARK    7  A    between atoms: C9_9  and  C21_21 
REMARK    8  A    between atoms: C9_9  and  C20_20 
REMARK    9  A    between atoms: C20_20  and  C24_24 
REMARK   10  A    between atoms: C21_21  and  C25_25 
ROOT
HETATM    1  O1          0      41.941  21.350 201.804  1.00  0.00    -0.353 OA
HETATM    2  C26         0      42.426  20.386 202.741  1.00  0.00     0.210 C 
ENDROOT
BRANCH   1   3
HETATM    3  C12         0      41.534  20.746 200.595  1.00  0.00     0.102 A 
HETATM    4  C18         0      41.832  21.355 199.451  1.00  0.00     0.099 A 
HETATM    5  C22         0      41.421  20.751 198.174  1.00  0.00     0.040 A 
HETATM    6  C14         0      40.750  19.593 198.150  1.00  0.00     0.014 A 
HETATM    7  C7          0      40.406  18.895 199.406  1.00  0.00    -0.033 A 
HETATM    8  C10         0      40.783  19.448 200.571  1.00  0.00     0.051 A 
BRANCH   4   9
HETATM    9  O3          0      42.536  22.571 199.480  1.00  0.00    -0.358 OA
HETATM   10  H40         0      43.240  22.575 198.783  1.00  0.00     0.217 HD
ENDBRANCH   4   9
BRANCH   7  11
HETATM   11  C16         0      39.637  17.566 199.394  1.00  0.00     0.015 C 
HETATM   12  C24         0      40.214  16.359 199.190  1.00  0.00     0.051 C 
BRANCH  12  13
HETATM   13  C20         0      39.384  15.059 199.190  1.00  0.00     0.156 C 
HETATM   14  O5          0      39.324  14.389 200.228  1.00  0.00    -0.293 OA
BRANCH  13  15
HETATM   15  C9          0      38.616  14.569 197.899  1.00  0.00     0.165 C 
BRANCH  15  16
HETATM   16  C21         0      39.460  14.602 196.562  1.00  0.00     0.156 C 
HETATM   17  O6          0      40.340  13.753 196.373  1.00  0.00    -0.293 OA
BRANCH  16  18
HETATM   18  C25         0      39.213  15.672 195.479  1.00  0.00     0.051 C 
HETATM   19  C17         0      38.990  16.967 195.805  1.00  0.00     0.015 C 
BRANCH  19  20
HETATM   20  C8          0      38.738  18.079 194.776  1.00  0.00    -0.033 A 
HETATM   21  C15         0      38.441  17.763 193.363  1.00  0.00     0.014 A 
HETATM   22  C23         0      38.223  18.743 192.476  1.00  0.00     0.040 A 
HETATM   23  C19         0      38.275  20.155 192.888  1.00  0.00     0.099 A 
HETATM   24  C13         0      38.541  20.463 194.154  1.00  0.00     0.102 A 
HETATM   25  C11         0      38.785  19.369 195.150  1.00  0.00     0.051 A 
BRANCH  23  26
HETATM   26  O4          0      38.047  21.185 191.960  1.00  0.00    -0.358 OA
HETATM   27  H41         0      38.474  20.965 191.094  1.00  0.00     0.217 HD
ENDBRANCH  23  26
BRANCH  24  28
HETATM   28  O2          0      38.584  21.827 194.518  1.00  0.00    -0.353 OA
HETATM   29  C27         0      39.841  22.181 195.099  1.00  0.00     0.210 C 
ENDBRANCH  24  28
ENDBRANCH  19  20
ENDBRANCH  16  18
ENDBRANCH  15  16
ENDBRANCH  13  15
ENDBRANCH  12  13
ENDBRANCH   7  11
ENDBRANCH   1   3
TORSDOF 10
REMARK  2 active torsions:
REMARK  status: ('A' for Active; 'I' for Inactive)
REMARK    1  A    between atoms: C9_9  and  C13_13 
REMARK    2  A    between atoms: C10_10  and  C14_14 
ROOT
HETATM    1  O1          0      44.599  19.206 198.677  1.00  0.00    -0.380 OA
HETATM    2  O2          0      42.765  15.915 196.770  1.00  0.00    -0.380 OA
HETATM    3  C7          0      44.484  16.960 198.166  1.00  0.00     0.052 C 
HETATM    4  C8          0      44.371  17.567 196.873  1.00  0.00     0.052 C 
HETATM    5  C9          0      43.864  18.015 199.128  1.00  0.00     0.161 C 
HETATM    6  C10         0      42.878  17.355 196.491  1.00  0.00     0.161 C 
HETATM    7  C11         0      44.921  18.994 197.180  1.00  0.00     0.176 C 
HETATM    8  C12         0      43.766  15.601 197.904  1.00  0.00     0.176 C 
ENDROOT
BRANCH   5   9
HETATM    9  C13         0      44.122  17.648 200.624  1.00  0.00    -0.026 A 
HETATM   10  C15         0      43.197  16.911 201.279  1.00  0.00     0.049 A 
HETATM   11  C19         0      43.409  16.673 202.719  1.00  0.00     0.105 A 
HETATM   12  O3          0      42.608  15.970 203.550  1.00  0.00    -0.323 OA
HETATM   13  C23         0      44.407  17.156 203.359  1.00  0.00     0.105 A 
HETATM   14  C25         0      43.174  16.021 204.881  1.00  0.00     0.352 A 
HETATM   15  O5          0      44.360  16.816 204.665  1.00  0.00    -0.323 OA
HETATM   16  C21         0      45.431  17.961 202.707  1.00  0.00     0.040 A 
HETATM   17  C17         0      45.292  18.191 201.391  1.00  0.00     0.012 A 
ENDBRANCH   5   9
BRANCH   6  18
HETATM   18  C14         0      42.610  17.726 194.998  1.00  0.00    -0.026 A 
HETATM   19  C18         0      42.407  16.683 193.938  1.00  0.00     0.012 A 
HETATM   20  C22         0      42.060  17.019 192.684  1.00  0.00     0.040 A 
HETATM   21  C24         0      41.896  18.437 192.392  1.00  0.00     0.105 A 
HETATM   22  O6          0      41.547  18.980 191.207  1.00  0.00    -0.323 OA
HETATM   23  C20         0      42.077  19.341 193.279  1.00  0.00     0.105 A 
HETATM   24  C26         0      41.495  20.413 191.364  1.00  0.00     0.352 A 
HETATM   25  O4          0      41.860  20.570 192.755  1.00  0.00    -0.323 OA
HETATM   26  C16         0      42.440  19.027 194.674  1.00  0.00     0.049 A 
ENDBRANCH   6  18
TORSDOF 2
ENDMDL
MODEL 4
REMARK VINA RESULT:    -3.299      3.936      8.730
REMARK INTER + INTRA:          -7.599
REMARK INTER:                  -5.485
REMARK INTRA:                  -2.114
REMARK UNBOUND:                -2.179
REMARK  10 active torsions:
REMARK  status: ('A' for Active; 'I' for Inactive)
REMARK    1  A    between atoms: O1_1  and  C12_12 
REMARK    2  A    between atoms: O2_2  and  C13_13 
REMARK    3  A    between atoms: O3_3  and  C18_18 
REMARK    4  A    between atoms: O4_4  and  C19_19 
REMARK    5  A    between atoms: C7_7  and  C16_16 
REMARK    6  A    between atoms: C8_8  and  C17_17 
REMARK    7  A    between atoms: C9_9  and  C21_21 
REMARK    8  A    between atoms: C9_9  and  C20_20 
REMARK    9  A    between atoms: C20_20  and  C24_24 
REMARK   10  A    between atoms: C21_21  and  C25_25 
ROOT
HETATM    1  O1          0      41.803  14.221 196.160  1.00  0.00    -0.353 OA
HETATM    2  C26         0      41.747  15.540 195.614  1.00  0.00     0.210 C 
ENDROOT
BRANCH   1   3
HETATM    3  C12         0      41.677  13.234 195.159  1.00  0.00     0.102 A 
HETATM    4  C18         0      42.713  12.433 194.927  1.00  0.00     0.099 A 
HETATM    5  C22         0      42.614  11.394 193.889  1.00  0.00     0.040 A 
HETATM    6  C14         0      41.490  11.244 193.177  1.00  0.00     0.014 A 
HETATM    7  C7          0      40.324  12.121 193.416  1.00  0.00    -0.033 A 
HETATM    8  C10         0      40.417  13.068 194.363  1.00  0.00     0.051 A 
BRANCH   4   9
HETATM    9  O3          0      43.891  12.593 195.676  1.00  0.00    -0.358 OA
HETATM   10  H40         0      43.980  13.532 195.976  1.00  0.00     0.217 HD
ENDBRANCH   4   9
BRANCH   7  11
HETATM   11  C16         0      39.029  11.961 192.606  1.00  0.00     0.015 C 
HETATM   12  C24         0      38.994  11.691 191.281  1.00  0.00     0.051 C 
BRANCH  12  13
HETATM   13  C20         0      37.658  11.543 190.524  1.00  0.00     0.156 C 
HETATM   14  O5          0      37.635  11.757 189.306  1.00  0.00    -0.293 OA
BRANCH  13  15
HETATM   15  C9          0      36.327  11.128 191.270  1.00  0.00     0.165 C 
BRANCH  15  16
HETATM   16  C21         0      35.230  12.262 191.367  1.00  0.00     0.156 C 
HETATM   17  O6          0      34.175  12.148 190.732  1.00  0.00    -0.293 OA
BRANCH  16  18
HETATM   18  C25         0      35.442  13.516 192.240  1.00  0.00     0.051 C 
HETATM   19  C17         0      36.034  13.438 193.455  1.00  0.00     0.015 C 
BRANCH  19  20
HETATM   20  C8          0      36.275  14.647 194.371  1.00  0.00    -0.033 A 
HETATM   21  C15         0      35.604  15.940 194.125  1.00  0.00     0.014 A 
HETATM   22  C23         0      35.822  16.987 194.932  1.00  0.00     0.040 A 
HETATM   23  C19         0      36.734  16.872 196.081  1.00  0.00     0.099 A 
HETATM   24  C13         0      37.349  15.717 196.322  1.00  0.00     0.102 A 
HETATM   25  C11         0      37.107  14.544 195.420  1.00  0.00     0.051 A 
BRANCH  23  26
HETATM   26  O4          0      36.966  17.968 196.930  1.00  0.00    -0.358 OA
HETATM   27  H41         0      37.060  18.797 196.398  1.00  0.00     0.217 HD
ENDBRANCH  23  26
BRANCH  24  28
HETATM   28  O2          0      38.218  15.640 197.432  1.00  0.00    -0.353 OA
HETATM   29  C27         0      38.634  14.296 197.686  1.00  0.00     0.210 C 
ENDBRANCH  24  28
ENDBRANCH  19  20
ENDBRANCH  16  18
ENDBRANCH  15  16
ENDBRANCH  13  15
ENDBRANCH  12  13
ENDBRANCH   7  11
ENDBRANCH   1   3
TORSDOF 10
REMARK  2 active torsions:
REMARK  status: ('A' for Active; 'I' for Inactive)
REMARK    1  A    between atoms: C9_9  and  C13_13 
REMARK    2  A    between atoms: C10_10  and  C14_14 
ROOT
HETATM    1  O1          0      39.315  14.934 189.576  1.00  0.00    -0.380 OA
HETATM    2  O2          0      38.518  17.691 192.673  1.00  0.00    -0.380 OA
HETATM    3  C7          0      39.084  15.472 191.806  1.00  0.00     0.052 C 
HETATM    4  C8          0      37.875  15.997 191.245  1.00  0.00     0.052 C 
HETATM    5  C9          0      40.109  15.569 190.639  1.00  0.00     0.161 C 
HETATM    6  C10         0      38.090  17.538 191.274  1.00  0.00     0.161 C 
HETATM    7  C11         0      37.830  15.223 189.892  1.00  0.00     0.176 C 
HETATM    8  C12         0      39.227  16.377 193.068  1.00  0.00     0.176 C 
ENDROOT
BRANCH   5   9
HETATM    9  C13         0      41.431  14.808 190.973  1.00  0.00    -0.026 A 
HETATM   10  C15         0      42.234  15.300 191.942  1.00  0.00     0.049 A 
HETATM   11  C19         0      43.529  14.629 192.163  1.00  0.00     0.105 A 
HETATM   12  O3          0      44.470  14.963 193.073  1.00  0.00    -0.323 OA
HETATM   13  C23         0      43.919  13.633 191.459  1.00  0.00     0.105 A 
HETATM   14  C25         0      45.594  14.064 192.920  1.00  0.00     0.352 A 
HETATM   15  O5          0      45.145  13.217 191.840  1.00  0.00    -0.323 OA
HETATM   16  C21         0      43.099  13.065 190.398  1.00  0.00     0.040 A 
HETATM   17  C17         0      41.902  13.630 190.170  1.00  0.00     0.012 A 
ENDBRANCH   5   9
BRANCH   6  18
HETATM   18  C14         0      36.772  18.306 190.934  1.00  0.00    -0.026 A 
HETATM   19  C18         0      35.425  17.645 190.978  1.00  0.00     0.012 A 
HETATM   20  C22         0      34.295  18.349 190.800  1.00  0.00     0.040 A 
HETATM   21  C24         0      34.428  19.779 190.555  1.00  0.00     0.105 A 
HETATM   22  O6          0      33.424  20.659 190.359  1.00  0.00    -0.323 OA
HETATM   23  C20         0      35.568  20.358 190.502  1.00  0.00     0.105 A 
HETATM   24  C26         0      34.002  21.967 190.162  1.00  0.00     0.352 A 
HETATM   25  O4          0      35.417  21.682 190.267  1.00  0.00    -0.323 OA
HETATM   26  C16         0      36.838  19.638 190.709  1.00  0.00     0.049 A 
ENDBRANCH   6  18
TORSDOF 2
ENDMDL
MODEL 5
REMARK VINA RESULT:    -3.292      2.645      5.879
REMARK INTER + INTRA:          -7.589
REMARK INTER:                  -5.454
REMARK INTRA:                  -2.135
REMARK UNBOUND:                -2.179
REMARK  10 active torsions:
REMARK  status: ('A' for Active; 'I' for Inactive)
REMARK    1  A    between atoms: O1_1  and  C12_12 
REMARK    2  A    between atoms: O2_2  and  C13_13 
REMARK    3  A    between atoms: O3_3  and  C18_18 
REMARK    4  A    between atoms: O4_4  and  C19_19 
REMARK    5  A    between atoms: C7_7  and  C16_16 
REMARK    6  A    between atoms: C8_8  and  C17_17 
REMARK    7  A    between atoms: C9_9  and  C21_21 
REMARK    8  A    between atoms: C9_9  and  C20_20 
REMARK    9  A    between atoms: C20_20  and  C24_24 
REMARK   10  A    between atoms: C21_21  and  C25_25 
ROOT
HETATM    1  O1          0      39.173  17.276 201.732  1.00  0.00    -0.353 OA
HETATM    2  C26         0      38.894  18.528 201.101  1.00  0.00     0.210 C 
ENDROOT
BRANCH   1   3
HETATM    3  C12         0      38.406  16.228 201.179  1.00  0.00     0.102 A 
HETATM    4  C18         0      37.477  15.655 201.939  1.00  0.00     0.099 A 
HETATM    5  C22         0      36.661  14.559 201.392  1.00  0.00     0.040 A 
HETATM    6  C14         0      36.841  14.134 200.135  1.00  0.00     0.014 A 
HETATM    7  C7          0      37.866  14.755 199.269  1.00  0.00    -0.033 A 
HETATM    8  C10         0      38.610  15.754 199.771  1.00  0.00     0.051 A 
BRANCH   4   9
HETATM    9  O3          0      37.290  16.103 203.258  1.00  0.00    -0.358 OA
HETATM   10  H40         0      37.033  15.347 203.842  1.00  0.00     0.217 HD
ENDBRANCH   4   9
BRANCH   7  11
HETATM   11  C16         0      38.085  14.277 197.826  1.00  0.00     0.015 C 
HETATM   12  C24         0      37.165  13.593 197.108  1.00  0.00     0.051 C 
BRANCH  12  13
HETATM   13  C20         0      37.446  13.140 195.660  1.00  0.00     0.156 C 
HETATM   14  O5          0      36.503  13.066 194.864  1.00  0.00    -0.293 OA
BRANCH  13  15
HETATM   15  C9          0      38.906  12.771 195.179  1.00  0.00     0.165 C 
BRANCH  15  16
HETATM   16  C21         0      39.628  13.878 194.312  1.00  0.00     0.156 C 
HETATM   17  O6          0      40.215  13.555 193.272  1.00  0.00    -0.293 OA
BRANCH  16  18
HETATM   18  C25         0      39.619  15.363 194.731  1.00  0.00     0.051 C 
HETATM   19  C17         0      40.520  15.852 195.614  1.00  0.00     0.015 C 
BRANCH  19  20
HETATM   20  C8          0      40.566  17.317 196.072  1.00  0.00    -0.033 A 
HETATM   21  C15         0      39.657  17.820 197.123  1.00  0.00     0.014 A 
HETATM   22  C23         0      39.707  19.100 197.514  1.00  0.00     0.040 A 
HETATM   23  C19         0      40.667  20.035 196.905  1.00  0.00     0.099 A 
HETATM   24  C13         0      41.494  19.604 195.956  1.00  0.00     0.102 A 
HETATM   25  C11         0      41.441  18.172 195.517  1.00  0.00     0.051 A 
BRANCH  23  26
HETATM   26  O4          0      40.722  21.379 197.311  1.00  0.00    -0.358 OA
HETATM   27  H41         0      39.947  21.592 197.888  1.00  0.00     0.217 HD
ENDBRANCH  23  26
BRANCH  24  28
HETATM   28  O2          0      42.404  20.525 195.391  1.00  0.00    -0.353 OA
HETATM   29  C27         0      42.273  20.594 193.969  1.00  0.00     0.210 C 
ENDBRANCH  24  28
ENDBRANCH  19  20
ENDBRANCH  16  18
ENDBRANCH  15  16
ENDBRANCH  13  15
ENDBRANCH  12  13
ENDBRANCH   7  11
ENDBRANCH   1   3
TORSDOF 10
REMARK  2 active torsions:
REMARK  status: ('A' for Active; 'I' for Inactive)
REMARK    1  A    between atoms: C9_9  and  C13_13 
REMARK    2  A    between atoms: C10_10  and  C14_14 
ROOT
HETATM    1  O1          0      37.836  20.293 194.723  1.00  0.00    -0.380 OA
HETATM    2  O2          0      36.244  16.384 194.826  1.00  0.00    -0.380 OA
HETATM    3  C7          0      36.697  18.538 193.754  1.00  0.00     0.052 C 
HETATM    4  C8          0      36.025  18.672 195.012  1.00  0.00     0.052 C 
HETATM    5  C9          0      38.146  19.021 194.052  1.00  0.00     0.161 C 
HETATM    6  C10         0      36.503  17.434 195.823  1.00  0.00     0.161 C 
HETATM    7  C11         0      36.468  20.111 195.418  1.00  0.00     0.176 C 
HETATM    8  C12         0      36.407  17.039 193.436  1.00  0.00     0.176 C 
ENDROOT
BRANCH   5   9
HETATM    9  C13         0      38.975  19.191 192.739  1.00  0.00    -0.026 A 
HETATM   10  C15         0      39.749  18.163 192.325  1.00  0.00     0.049 A 
HETATM   11  C19         0      40.607  18.387 191.146  1.00  0.00     0.105 A 
HETATM   12  O3          0      41.450  17.496 190.577  1.00  0.00    -0.323 OA
HETATM   13  C23         0      40.661  19.511 190.535  1.00  0.00     0.105 A 
HETATM   14  C25         0      42.119  18.144 189.469  1.00  0.00     0.352 A 
HETATM   15  O5          0      41.537  19.465 189.508  1.00  0.00    -0.323 OA
HETATM   16  C21         0      39.855  20.654 190.940  1.00  0.00     0.040 A 
HETATM   17  C17         0      39.043  20.495 191.998  1.00  0.00     0.012 A 
ENDBRANCH   5   9
BRANCH   6  18
HETATM   18  C14         0      35.682  17.261 197.141  1.00  0.00    -0.026 A 
HETATM   19  C18         0      34.627  16.204 197.295  1.00  0.00     0.012 A 
HETATM   20  C22         0      34.016  15.993 198.473  1.00  0.00     0.040 A 
HETATM   21  C24         0      34.414  16.835 199.594  1.00  0.00     0.105 A 
HETATM   22  O6          0      33.930  16.780 200.852  1.00  0.00    -0.323 OA
HETATM   23  C20         0      35.302  17.749 199.479  1.00  0.00     0.105 A 
HETATM   24  C26         0      34.603  17.785 201.639  1.00  0.00     0.352 A 
HETATM   25  O4          0      35.487  18.381 200.661  1.00  0.00    -0.323 OA
HETATM   26  C16         0      36.017  18.010 198.216  1.00  0.00     0.049 A 
ENDBRANCH   6  18
TORSDOF 2
ENDMDL
MODEL 6
REMARK VINA RESULT:    -3.290      4.375      6.562
REMARK INTER + INTRA:          -7.585
REMARK INTER:                  -5.360
REMARK INTRA:                  -2.225
REMARK UNBOUND:                -2.179
REMARK  10 active torsions:
REMARK  status: ('A' for Active; 'I' for Inactive)
REMARK    1  A    between atoms: O1_1  and  C12_12 
REMARK    2  A    between atoms: O2_2  and  C13_13 
REMARK    3  A    between atoms: O3_3  and  C18_18 
REMARK    4  A    between atoms: O4_4  and  C19_19 
REMARK    5  A    between atoms: C7_7  and  C16_16 
REMARK    6  A    between atoms: C8_8  and  C17_17 
REMARK    7  A    between atoms: C9_9  and  C21_21 
REMARK    8  A    between atoms: C9_9  and  C20_20 
REMARK    9  A    between atoms: C20_20  and  C24_24 
REMARK   10  A    between atoms: C21_21  and  C25_25 
ROOT
HETATM    1  O1          0      36.413  18.128 197.725  1.00  0.00    -0.353 OA
HETATM    2  C26         0      37.202  19.030 198.504  1.00  0.00     0.210 C 
ENDROOT
BRANCH   1   3
HETATM    3  C12         0      37.112  16.936 197.438  1.00  0.00     0.102 A 
HETATM    4  C18         0      37.083  16.470 196.193  1.00  0.00     0.099 A 
HETATM    5  C22         0      37.801  15.229 195.861  1.00  0.00     0.040 A 
HETATM    6  C14         0      38.485  14.563 196.800  1.00  0.00     0.014 A 
HETATM    7  C7          0      38.533  15.059 198.191  1.00  0.00    -0.033 A 
HETATM    8  C10         0      37.877  16.192 198.491  1.00  0.00     0.051 A 
BRANCH   4   9
HETATM    9  O3          0      36.364  17.171 195.210  1.00  0.00    -0.358 OA
HETATM   10  H40         0      36.972  17.763 194.699  1.00  0.00     0.217 HD
ENDBRANCH   4   9
BRANCH   7  11
HETATM   11  C16         0      39.313  14.305 199.279  1.00  0.00     0.015 C 
HETATM   12  C24         0      40.616  14.530 199.568  1.00  0.00     0.051 C 
BRANCH  12  13
HETATM   13  C20         0      41.343  13.738 200.674  1.00  0.00     0.156 C 
HETATM   14  O5          0      41.454  14.245 201.797  1.00  0.00    -0.293 OA
BRANCH  13  15
HETATM   15  C9          0      41.946  12.302 200.402  1.00  0.00     0.165 C 
BRANCH  15  16
HETATM   16  C21         0      42.782  12.167 199.067  1.00  0.00     0.156 C 
HETATM   17  O6          0      43.911  12.668 198.998  1.00  0.00    -0.293 OA
BRANCH  16  18
HETATM   18  C25         0      42.223  11.420 197.838  1.00  0.00     0.051 C 
HETATM   19  C17         0      40.924  11.529 197.477  1.00  0.00     0.015 C 
BRANCH  19  20
HETATM   20  C8          0      40.306  10.814 196.266  1.00  0.00    -0.033 A 
HETATM   21  C15         0      41.070   9.808 195.500  1.00  0.00     0.014 A 
HETATM   22  C23         0      40.519   9.190 194.446  1.00  0.00     0.040 A 
HETATM   23  C19         0      39.143   9.500 194.028  1.00  0.00     0.099 A 
HETATM   24  C13         0      38.437  10.403 194.703  1.00  0.00     0.102 A 
HETATM   25  C11         0      39.050  11.096 195.883  1.00  0.00     0.051 A 
BRANCH  23  26
HETATM   26  O4          0      38.562   8.855 192.923  1.00  0.00    -0.358 OA
HETATM   27  H41         0      37.657   8.528 193.156  1.00  0.00     0.217 HD
ENDBRANCH  23  26
BRANCH  24  28
HETATM   28  O2          0      37.119  10.679 194.277  1.00  0.00    -0.353 OA
HETATM   29  C27         0      36.945  12.060 193.952  1.00  0.00     0.210 C 
ENDBRANCH  24  28
ENDBRANCH  19  20
ENDBRANCH  16  18
ENDBRANCH  15  16
ENDBRANCH  13  15
ENDBRANCH  12  13
ENDBRANCH   7  11
ENDBRANCH   1   3
TORSDOF 10
REMARK  2 active torsions:
REMARK  status: ('A' for Active; 'I' for Inactive)
REMARK    1  A    between atoms: C9_9  and  C13_13 
REMARK    2  A    between atoms: C10_10  and  C14_14 
ROOT
HETATM    1  O1          0      42.909  14.845 196.709  1.00  0.00    -0.380 OA
HETATM    2  O2          0      40.227  17.922 195.632  1.00  0.00    -0.380 OA
HETATM    3  C7          0      42.060  16.360 195.192  1.00  0.00     0.052 C 
HETATM    4  C8          0      42.294  17.186 196.341  1.00  0.00     0.052 C 
HETATM    5  C9          0      41.761  14.958 195.797  1.00  0.00     0.161 C 
HETATM    6  C10         0      40.866  17.483 196.882  1.00  0.00     0.161 C 
HETATM    7  C11         0      43.279  16.281 197.144  1.00  0.00     0.176 C 
HETATM    8  C12         0      40.938  17.177 194.481  1.00  0.00     0.176 C 
ENDROOT
BRANCH   5   9
HETATM    9  C13         0      41.728  13.854 194.692  1.00  0.00    -0.026 A 
HETATM   10  C15         0      42.849  13.132 194.465  1.00  0.00     0.049 A 
HETATM   11  C19         0      42.828  12.173 193.344  1.00  0.00     0.105 A 
HETATM   12  O3          0      43.836  11.364 192.951  1.00  0.00    -0.323 OA
HETATM   13  C23         0      41.811  12.029 192.578  1.00  0.00     0.105 A 
HETATM   14  C25         0      43.397  10.619 191.790  1.00  0.00     0.352 A 
HETATM   15  O5          0      42.052  11.113 191.616  1.00  0.00    -0.323 OA
HETATM   16  C21         0      40.581  12.784 192.771  1.00  0.00     0.040 A 
HETATM   17  C17         0      40.544  13.657 193.791  1.00  0.00     0.012 A 
ENDBRANCH   5   9
BRANCH   6  18
HETATM   18  C14         0      40.892  18.582 197.992  1.00  0.00    -0.026 A 
HETATM   19  C18         0      40.793  20.046 197.672  1.00  0.00     0.012 A 
HETATM   20  C22         0      40.697  20.968 198.644  1.00  0.00     0.040 A 
HETATM   21  C24         0      40.700  20.493 200.022  1.00  0.00     0.105 A 
HETATM   22  O6          0      40.606  21.250 201.134  1.00  0.00    -0.323 OA
HETATM   23  C20         0      40.795  19.251 200.314  1.00  0.00     0.105 A 
HETATM   24  C26         0      40.641  20.375 202.281  1.00  0.00     0.352 A 
HETATM   25  O4          0      40.771  19.076 201.655  1.00  0.00    -0.323 OA
HETATM   26  C16         0      40.884  18.195 199.287  1.00  0.00     0.049 A 
ENDBRANCH   6  18
TORSDOF 2
ENDMDL
MODEL 7
REMARK VINA RESULT:    -3.277      4.143      8.520
REMARK INTER + INTRA:          -7.564
REMARK INTER:                  -5.395
REMARK INTRA:                  -2.169
REMARK UNBOUND:                -2.179
REMARK  10 active torsions:
REMARK  status: ('A' for Active; 'I' for Inactive)
REMARK    1  A    between atoms: O1_1  and  C12_12 
REMARK    2  A    between atoms: O2_2  and  C13_13 
REMARK    3  A    between atoms: O3_3  and  C18_18 
REMARK    4  A    between atoms: O4_4  and  C19_19 
REMARK    5  A    between atoms: C7_7  and  C16_16 
REMARK    6  A    between atoms: C8_8  and  C17_17 
REMARK    7  A    between atoms: C9_9  and  C21_21 
REMARK    8  A    between atoms: C9_9  and  C20_20 
REMARK    9  A    between atoms: C20_20  and  C24_24 
REMARK   10  A    between atoms: C21_21  and  C25_25 
ROOT
HETATM    1  O1          0      39.948  10.469 200.315  1.00  0.00    -0.353 OA
HETATM    2  C26         0      39.551   9.942 201.583  1.00  0.00     0.210 C 
ENDROOT
BRANCH   1   3
HETATM    3  C12         0      40.500  11.762 200.435  1.00  0.00     0.102 A 
HETATM    4  C18         0      41.656  12.015 199.828  1.00  0.00     0.099 A 
HETATM    5  C22         0      42.259  13.353 199.934  1.00  0.00     0.040 A 
HETATM    6  C14         0      41.655  14.322 200.634  1.00  0.00     0.014 A 
HETATM    7  C7          0      40.370  14.067 201.318  1.00  0.00    -0.033 A 
HETATM    8  C10         0      39.822  12.845 201.220  1.00  0.00     0.051 A 
BRANCH   4   9
HETATM    9  O3          0      42.288  10.996 199.093  1.00  0.00    -0.358 OA
HETATM   10  H40         0      42.958  10.535 199.657  1.00  0.00     0.217 HD
ENDBRANCH   4   9
BRANCH   7  11
HETATM   11  C16         0      39.666  15.168 202.125  1.00  0.00     0.015 C 
HETATM   12  C24         0      39.688  16.480 201.795  1.00  0.00     0.051 C 
BRANCH  12  13
HETATM   13  C20         0      38.959  17.538 202.649  1.00  0.00     0.156 C 
HETATM   14  O5          0      39.628  18.411 203.215  1.00  0.00    -0.293 OA
BRANCH  13  15
HETATM   15  C9          0      37.388  17.526 202.816  1.00  0.00     0.165 C 
BRANCH  15  16
HETATM   16  C21         0      36.569  17.570 201.463  1.00  0.00     0.156 C 
HETATM   17  O6          0      36.493  18.628 200.828  1.00  0.00    -0.293 OA
BRANCH  16  18
HETATM   18  C25         0      35.856  16.318 200.912  1.00  0.00     0.051 C 
HETATM   19  C17         0      36.376  15.080 201.078  1.00  0.00     0.015 C 
BRANCH  19  20
HETATM   20  C8          0      35.716  13.795 200.555  1.00  0.00    -0.033 A 
HETATM   21  C15         0      34.246  13.650 200.514  1.00  0.00     0.014 A 
HETATM   22  C23         0      33.684  12.525 200.054  1.00  0.00     0.040 A 
HETATM   23  C19         0      34.516  11.408 199.580  1.00  0.00     0.099 A 
HETATM   24  C13         0      35.842  11.515 199.609  1.00  0.00     0.102 A 
HETATM   25  C11         0      36.475  12.774 200.123  1.00  0.00     0.051 A 
BRANCH  23  26
HETATM   26  O4          0      33.930  10.225 199.098  1.00  0.00    -0.358 OA
HETATM   27  H41         0      32.958  10.226 199.286  1.00  0.00     0.217 HD
ENDBRANCH  23  26
BRANCH  24  28
HETATM   28  O2          0      36.613  10.426 199.148  1.00  0.00    -0.353 OA
HETATM   29  C27         0      37.305  10.741 197.937  1.00  0.00     0.210 C 
ENDBRANCH  24  28
ENDBRANCH  19  20
ENDBRANCH  16  18
ENDBRANCH  15  16
ENDBRANCH  13  15
ENDBRANCH  12  13
ENDBRANCH   7  11
ENDBRANCH   1   3
TORSDOF 10
REMARK  2 active torsions:
REMARK  status: ('A' for Active; 'I' for Inactive)
REMARK    1  A    between atoms: C9_9  and  C13_13 
REMARK    2  A    between atoms: C10_10  and  C14_14 
ROOT
HETATM    1  O1          0      37.395  17.324 197.689  1.00  0.00    -0.380 OA
HETATM    2  O2          0      40.461  14.499 197.017  1.00  0.00    -0.380 OA
HETATM    3  C7          0      38.439  15.316 198.132  1.00  0.00     0.052 C 
HETATM    4  C8          0      39.530  16.243 198.206  1.00  0.00     0.052 C 
HETATM    5  C9          0      37.461  15.971 197.114  1.00  0.00     0.161 C 
HETATM    6  C10         0      40.345  15.962 196.911  1.00  0.00     0.161 C 
HETATM    7  C11         0      38.751  17.583 198.383  1.00  0.00     0.176 C 
HETATM    8  C12         0      39.205  14.006 197.771  1.00  0.00     0.176 C 
ENDROOT
BRANCH   5   9
HETATM    9  C13         0      36.085  15.234 197.086  1.00  0.00    -0.026 A 
HETATM   10  C15         0      36.038  13.968 196.614  1.00  0.00     0.049 A 
HETATM   11  C19         0      34.712  13.333 196.493  1.00  0.00     0.105 A 
HETATM   12  O3          0      34.449  12.086 196.044  1.00  0.00    -0.323 OA
HETATM   13  C23         0      33.626  13.942 196.789  1.00  0.00     0.105 A 
HETATM   14  C25         0      33.016  11.888 196.059  1.00  0.00     0.352 A 
HETATM   15  O5          0      32.551  13.156 196.567  1.00  0.00    -0.323 OA
HETATM   16  C21         0      33.615  15.307 197.296  1.00  0.00     0.040 A 
HETATM   17  C17         0      34.800  15.923 197.441  1.00  0.00     0.012 A 
ENDBRANCH   5   9
BRANCH   6  18
HETATM   18  C14         0      41.721  16.701 196.929  1.00  0.00    -0.026 A 
HETATM   19  C18         0      42.256  17.425 195.727  1.00  0.00     0.012 A 
HETATM   20  C22         0      43.383  18.155 195.796  1.00  0.00     0.040 A 
HETATM   21  C24         0      44.068  18.210 197.081  1.00  0.00     0.105 A 
HETATM   22  O6          0      45.201  18.887 197.360  1.00  0.00    -0.323 OA
HETATM   23  C20         0      43.634  17.590 198.112  1.00  0.00     0.105 A 
HETATM   24  C26         0      45.525  18.673 198.750  1.00  0.00     0.352 A 
HETATM   25  O4          0      44.446  17.805 199.172  1.00  0.00    -0.323 OA
HETATM   26  C16         0      42.393  16.791 198.098  1.00  0.00     0.049 A 
ENDBRANCH   6  18
TORSDOF 2
ENDMDL
MODEL 8
REMARK VINA RESULT:    -3.272      4.860      9.611
REMARK INTER + INTRA:          -7.555
REMARK INTER:                  -5.501
REMARK INTRA:                  -2.055
REMARK UNBOUND:                -2.179
REMARK  10 active torsions:
REMARK  status: ('A' for Active; 'I' for Inactive)
REMARK    1  A    between atoms: O1_1  and  C12_12 
REMARK    2  A    between atoms: O2_2  and  C13_13 
REMARK    3  A    between atoms: O3_3  and  C18_18 
REMARK    4  A    between atoms: O4_4  and  C19_19 
REMARK    5  A    between atoms: C7_7  and  C16_16 
REMARK    6  A    between atoms: C8_8  and  C17_17 
REMARK    7  A    between atoms: C9_9  and  C21_21 
REMARK    8  A    between atoms: C9_9  and  C20_20 
REMARK    9  A    between atoms: C20_20  and  C24_24 
REMARK   10  A    between atoms: C21_21  and  C25_25 
ROOT
HETATM    1  O1          0      37.512  17.245 200.320  1.00  0.00    -0.353 OA
HETATM    2  C26         0      38.050  16.498 199.227  1.00  0.00     0.210 C 
ENDROOT
BRANCH   1   3
HETATM    3  C12         0      38.397  18.258 200.748  1.00  0.00     0.102 A 
HETATM    4  C18         0      38.411  18.583 202.038  1.00  0.00     0.099 A 
HETATM    5  C22         0      39.321  19.635 202.516  1.00  0.00     0.040 A 
HETATM    6  C14         0      40.140  20.269 201.667  1.00  0.00     0.014 A 
HETATM    7  C7          0      40.145  19.927 200.230  1.00  0.00    -0.033 A 
HETATM    8  C10         0      39.313  18.966 199.795  1.00  0.00     0.051 A 
BRANCH   4   9
HETATM    9  O3          0      37.550  17.915 202.926  1.00  0.00    -0.358 OA
HETATM   10  H40         0      37.777  16.952 202.963  1.00  0.00     0.217 HD
ENDBRANCH   4   9
BRANCH   7  11
HETATM   11  C16         0      41.078  20.646 199.244  1.00  0.00     0.015 C 
HETATM   12  C24         0      42.059  21.499 199.616  1.00  0.00     0.051 C 
BRANCH  12  13
HETATM   13  C20         0      42.964  22.191 198.575  1.00  0.00     0.156 C 
HETATM   14  O5          0      44.116  22.502 198.899  1.00  0.00    -0.293 OA
BRANCH  13  15
HETATM   15  C9          0      42.449  22.509 197.115  1.00  0.00     0.165 C 
BRANCH  15  16
HETATM   16  C21         0      43.110  21.645 195.967  1.00  0.00     0.156 C 
HETATM   17  O6          0      44.261  21.901 195.594  1.00  0.00    -0.293 OA
BRANCH  16  18
HETATM   18  C25         0      42.351  20.483 195.294  1.00  0.00     0.051 C 
HETATM   19  C17         0      41.436  19.752 195.972  1.00  0.00     0.015 C 
BRANCH  19  20
HETATM   20  C8          0      40.646  18.584 195.360  1.00  0.00    -0.033 A 
HETATM   21  C15         0      40.126  18.652 193.979  1.00  0.00     0.014 A 
HETATM   22  C23         0      39.440  17.626 193.458  1.00  0.00     0.040 A 
HETATM   23  C19         0      39.189  16.411 194.248  1.00  0.00     0.099 A 
HETATM   24  C13         0      39.648  16.328 195.494  1.00  0.00     0.102 A 
HETATM   25  C11         0      40.416  17.474 196.080  1.00  0.00     0.051 A 
BRANCH  23  26
HETATM   26  O4          0      38.469  15.333 193.704  1.00  0.00    -0.358 OA
HETATM   27  H41         0      37.763  15.668 193.096  1.00  0.00     0.217 HD
ENDBRANCH  23  26
BRANCH  24  28
HETATM   28  O2          0      39.390  15.149 196.226  1.00  0.00    -0.353 OA
HETATM   29  C27         0      40.549  14.702 196.935  1.00  0.00     0.210 C 
ENDBRANCH  24  28
ENDBRANCH  19  20
ENDBRANCH  16  18
ENDBRANCH  15  16
ENDBRANCH  13  15
ENDBRANCH  12  13
ENDBRANCH   7  11
ENDBRANCH   1   3
TORSDOF 10
REMARK  2 active torsions:
REMARK  status: ('A' for Active; 'I' for Inactive)
REMARK    1  A    between atoms: C9_9  and  C13_13 
REMARK    2  A    between atoms: C10_10  and  C14_14 
ROOT
HETATM    1  O1          0      44.107  18.983 198.257  1.00  0.00    -0.380 OA
HETATM    2  O2          0      43.895  15.473 195.920  1.00  0.00    -0.380 OA
HETATM    3  C7          0      44.534  16.742 197.913  1.00  0.00     0.052 C 
HETATM    4  C8          0      45.020  17.329 196.699  1.00  0.00     0.052 C 
HETATM    5  C9          0      43.392  17.701 198.359  1.00  0.00     0.161 C 
HETATM    6  C10         0      43.962  16.914 195.637  1.00  0.00     0.161 C 
HETATM    7  C11         0      45.164  18.817 197.142  1.00  0.00     0.176 C 
HETATM    8  C12         0      44.214  15.297 197.421  1.00  0.00     0.176 C 
ENDROOT
BRANCH   5   9
HETATM    9  C13         0      42.900  17.372 199.805  1.00  0.00    -0.026 A 
HETATM   10  C15         0      41.916  16.458 199.961  1.00  0.00     0.049 A 
HETATM   11  C19         0      41.391  16.246 201.323  1.00  0.00     0.105 A 
HETATM   12  O3          0      40.415  15.387 201.690  1.00  0.00    -0.323 OA
HETATM   13  C23         0      41.811  16.909 202.335  1.00  0.00     0.105 A 
HETATM   14  C25         0      40.192  15.530 203.113  1.00  0.00     0.352 A 
HETATM   15  O5          0      41.155  16.548 203.459  1.00  0.00    -0.323 OA
HETATM   16  C21         0      42.862  17.910 202.225  1.00  0.00     0.040 A 
HETATM   17  C17         0      43.386  18.126 201.008  1.00  0.00     0.012 A 
ENDBRANCH   5   9
BRANCH   6  18
HETATM   18  C14         0      44.445  17.246 194.188  1.00  0.00    -0.026 A 
HETATM   19  C18         0      43.495  17.668 193.105  1.00  0.00     0.012 A 
HETATM   20  C22         0      43.941  18.064 191.900  1.00  0.00     0.040 A 
HETATM   21  C24         0      45.382  18.061 191.685  1.00  0.00     0.105 A 
HETATM   22  O6          0      46.028  18.427 190.559  1.00  0.00    -0.323 OA
HETATM   23  C20         0      46.206  17.694 192.593  1.00  0.00     0.105 A 
HETATM   24  C26         0      47.446  18.278 190.782  1.00  0.00     0.352 A 
HETATM   25  O4          0      47.479  17.787 192.143  1.00  0.00    -0.323 OA
HETATM   26  C16         0      45.773  17.269 193.937  1.00  0.00     0.049 A 
ENDBRANCH   6  18
TORSDOF 2
ENDMDL
MODEL 9
REMARK VINA RESULT:    -3.269      3.042      7.055
REMARK INTER + INTRA:          -7.550
REMARK INTER:                  -5.399
REMARK INTRA:                  -2.151
REMARK UNBOUND:                -2.179
REMARK  10 active torsions:
REMARK  status: ('A' for Active; 'I' for Inactive)
REMARK    1  A    between atoms: O1_1  and  C12_12 
REMARK    2  A    between atoms: O2_2  and  C13_13 
REMARK    3  A    between atoms: O3_3  and  C18_18 
REMARK    4  A    between atoms: O4_4  and  C19_19 
REMARK    5  A    between atoms: C7_7  and  C16_16 
REMARK    6  A    between atoms: C8_8  and  C17_17 
REMARK    7  A    between atoms: C9_9  and  C21_21 
REMARK    8  A    between atoms: C9_9  and  C20_20 
REMARK    9  A    between atoms: C20_20  and  C24_24 
REMARK   10  A    between atoms: C21_21  and  C25_25 
ROOT
HETATM    1  O1          0      38.996  13.629 195.712  1.00  0.00    -0.353 OA
HETATM    2  C26         0      39.547  13.950 194.434  1.00  0.00     0.210 C 
ENDROOT
BRANCH   1   3
HETATM    3  C12         0      38.714  14.789 196.467  1.00  0.00     0.102 A 
HETATM    4  C18         0      39.118  14.833 197.733  1.00  0.00     0.099 A 
HETATM    5  C22         0      38.840  16.027 198.547  1.00  0.00     0.040 A 
HETATM    6  C14         0      38.185  17.072 198.025  1.00  0.00     0.014 A 
HETATM    7  C7          0      37.726  17.049 196.621  1.00  0.00    -0.033 A 
HETATM    8  C10         0      37.981  15.958 195.880  1.00  0.00     0.051 A 
BRANCH   4   9
HETATM    9  O3          0      39.805  13.734 198.277  1.00  0.00    -0.358 OA
HETATM   10  H40         0      39.321  13.387 199.068  1.00  0.00     0.217 HD
ENDBRANCH   4   9
BRANCH   7  11
HETATM   11  C16         0      36.973  18.240 196.009  1.00  0.00     0.015 C 
HETATM   12  C24         0      37.580  19.299 195.425  1.00  0.00     0.051 C 
BRANCH  12  13
HETATM   13  C20         0      36.766  20.466 194.828  1.00  0.00     0.156 C 
HETATM   14  O5          0      36.700  20.580 193.598  1.00  0.00    -0.293 OA
BRANCH  13  15
HETATM   15  C9          0      36.021  21.510 195.751  1.00  0.00     0.165 C 
BRANCH  15  16
HETATM   16  C21         0      36.929  22.215 196.837  1.00  0.00     0.156 C 
HETATM   17  O6          0      37.795  23.022 196.479  1.00  0.00    -0.293 OA
BRANCH  16  18
HETATM   18  C25         0      36.762  21.921 198.342  1.00  0.00     0.051 C 
HETATM   19  C17         0      36.563  20.662 198.797  1.00  0.00     0.015 C 
BRANCH  19  20
HETATM   20  C8          0      36.390  20.302 200.280  1.00  0.00    -0.033 A 
HETATM   21  C15         0      36.210  21.351 201.306  1.00  0.00     0.014 A 
HETATM   22  C23         0      36.059  21.024 202.596  1.00  0.00     0.040 A 
HETATM   23  C19         0      36.070  19.615 203.021  1.00  0.00     0.099 A 
HETATM   24  C13         0      36.232  18.655 202.115  1.00  0.00     0.102 A 
HETATM   25  C11         0      36.400  19.017 200.670  1.00  0.00     0.051 A 
BRANCH  23  26
HETATM   26  O4          0      35.913  19.269 204.374  1.00  0.00    -0.358 OA
HETATM   27  H41         0      35.520  18.364 204.451  1.00  0.00     0.217 HD
ENDBRANCH  23  26
BRANCH  24  28
HETATM   28  O2          0      36.238  17.313 202.554  1.00  0.00    -0.353 OA
HETATM   29  C27         0      37.067  16.489 201.730  1.00  0.00     0.210 C 
ENDBRANCH  24  28
ENDBRANCH  19  20
ENDBRANCH  16  18
ENDBRANCH  15  16
ENDBRANCH  13  15
ENDBRANCH  12  13
ENDBRANCH   7  11
ENDBRANCH   1   3
TORSDOF 10
REMARK  2 active torsions:
REMARK  status: ('A' for Active; 'I' for Inactive)
REMARK    1  A    between atoms: C9_9  and  C13_13 
REMARK    2  A    between atoms: C10_10  and  C14_14 
ROOT
HETATM    1  O1          0      41.823  17.070 196.734  1.00  0.00    -0.380 OA
HETATM    2  O2          0      40.253  20.963 197.196  1.00  0.00    -0.380 OA
HETATM    3  C7          0      41.810  19.326 196.252  1.00  0.00     0.052 C 
HETATM    4  C8          0      41.802  19.326 197.685  1.00  0.00     0.052 C 
HETATM    5  C9          0      41.078  18.005 195.876  1.00  0.00     0.161 C 
HETATM    6  C10         0      40.356  19.769 198.049  1.00  0.00     0.161 C 
HETATM    7  C11         0      42.286  17.871 197.971  1.00  0.00     0.176 C 
HETATM    8  C12         0      41.152  20.711 195.966  1.00  0.00     0.176 C 
ENDROOT
BRANCH   5   9
HETATM    9  C13         0      41.207  17.694 194.350  1.00  0.00    -0.026 A 
HETATM   10  C15         0      42.441  17.656 193.800  1.00  0.00     0.049 A 
HETATM   11  C19         0      42.531  17.471 192.339  1.00  0.00     0.105 A 
HETATM   12  O3          0      43.659  17.409 191.598  1.00  0.00    -0.323 OA
HETATM   13  C23         0      41.496  17.377 191.590  1.00  0.00     0.105 A 
HETATM   14  C25         0      43.286  17.257 190.208  1.00  0.00     0.352 A 
HETATM   15  O5          0      41.845  17.240 190.293  1.00  0.00    -0.323 OA
HETATM   16  C21         0      40.143  17.417 192.127  1.00  0.00     0.040 A 
HETATM   17  C17         0      40.009  17.566 193.455  1.00  0.00     0.012 A 
ENDBRANCH   5   9
BRANCH   6  18
HETATM   18  C14         0      40.218  20.076 199.575  1.00  0.00    -0.026 A 
HETATM   19  C18         0      40.054  21.473 200.099  1.00  0.00     0.012 A 
HETATM   20  C22         0      39.818  21.708 201.401  1.00  0.00     0.040 A 
HETATM   21  C24         0      39.734  20.553 202.285  1.00  0.00     0.105 A 
HETATM   22  O6          0      39.498  20.572 203.613  1.00  0.00    -0.323 OA
HETATM   23  C20         0      39.882  19.356 201.859  1.00  0.00     0.105 A 
HETATM   24  C26         0      39.491  19.210 204.091  1.00  0.00     0.352 A 
HETATM   25  O4          0      39.755  18.471 202.875  1.00  0.00    -0.323 OA
HETATM   26  C16         0      40.125  19.040 200.438  1.00  0.00     0.049 A 
ENDBRANCH   6  18
TORSDOF 2
ENDMDL
