MODEL 1
REMARK VINA RESULT:    -2.943      0.000      0.000
REMARK INTER + INTRA:          -9.636
REMARK INTER:                  -5.953
REMARK INTRA:                  -3.683
REMARK UNBOUND:                -3.683
REMARK  Name = HEMCA.pdb
REMARK  4 active torsions:
REMARK  status: ('A' for Active; 'I' for Inactive)
REMARK    1  A    between atoms: C5_5  and  O19_19
REMARK    2  A    between atoms: C6_6  and  O18_18
REMARK    3  A    between atoms: C7_7  and  O20_20
REMARK    4  A    between atoms: C17_17  and  O21_21
REMARK                            x       y       z     vdW  Elec       q    Type
REMARK                         _______ _______ _______ _____ _____    ______ ____
ROOT
ATOM      1  C1  UNK H   1      34.708  13.265 197.495  0.00  0.00    +0.000 A 
ATOM      2  C2  UNK H   1      33.608  13.464 196.769  0.00  0.00    +0.000 A 
ATOM      3  C3  UNK H   1      34.633  13.310 198.969  0.00  0.00    +0.000 A 
ATOM      4  C4  UNK H   1      32.332  13.740 197.431  0.00  0.00    +0.000 A 
ATOM      5  C5  UNK H   1      33.473  13.575 199.564  0.00  0.00    +0.000 A 
ATOM      6  C6  UNK H   1      32.270  13.802 198.760  0.00  0.00    +0.000 A 
ATOM      7  C7  UNK H   1      37.207  13.046 197.802  0.00  0.00    +0.000 C 
ATOM      8  C8  UNK H   1      36.035  13.039 196.911  0.00  0.00    +0.000 C 
ATOM      9  C9  UNK H   1      36.929  12.456 199.184  0.00  0.00    +0.000 C 
ATOM     10  O10 UNK H   1      35.763  13.051 199.745  0.00  0.00    +0.000 OA
ATOM     11  C11 UNK H   1      38.371  12.424 196.965  0.00  0.00    +0.000 C 
ATOM     12  C12 UNK H   1      37.825  12.713 195.596  0.00  0.00    +0.000 C 
ATOM     13  C13 UNK H   1      36.424  12.946 195.640  0.00  0.00    +0.000 C 
ATOM     14  C14 UNK H   1      38.494  12.622 194.453  0.00  0.00    +0.000 C 
ATOM     15  C15 UNK H   1      37.741  12.805 193.202  0.00  0.00    +0.000 C 
ATOM     16  C16 UNK H   1      35.630  13.036 194.416  0.00  0.00    +0.000 C 
ATOM     17  C17 UNK H   1      36.266  12.977 193.244  0.00  0.00    +0.000 C 
ATOM     18  O22 UNK H   1      38.326  12.759 192.116  0.00  0.00    +0.000 OA
ENDROOT
BRANCH   6  19
ATOM     19  O18 UNK H   1      31.057  14.068 199.386  0.00  0.00    +0.000 OA
ATOM     20  H9  UNK H   1      30.340  14.327 198.664  0.00  0.00    +0.000 HD
ENDBRANCH   6  19
BRANCH   5  21
ATOM     21  O19 UNK H   1      33.398  13.611 200.951  0.00  0.00    +0.000 OA
ATOM     22  H10 UNK H   1      33.205  12.646 201.317  0.00  0.00    +0.000 HD
ENDBRANCH   5  21
BRANCH   7  23
ATOM     23  O20 UNK H   1      37.484  14.439 197.956  0.00  0.00    +0.000 OA
ATOM     24  H11 UNK H   1      38.195  14.736 197.242  0.00  0.00    +0.000 HD
ENDBRANCH   7  23
BRANCH  17  25
ATOM     25  O21 UNK H   1      35.546  13.076 192.059  0.00  0.00    +0.000 OA
ATOM     26  H12 UNK H   1      36.162  13.471 191.306  0.00  0.00    +0.000 HD
ENDBRANCH  17  25
TORSDOF 4
REMARK  Name = Acarbose.pdb
REMARK  23 active torsions:
REMARK  status: ('A' for Active; 'I' for Inactive)
REMARK    1  A    between atoms: O1_1  and  C22_22
REMARK    2  A    between atoms: O1_1  and  C25_25
REMARK    3  A    between atoms: O4_4  and  C30_30
REMARK    4  A    between atoms: O4_4  and  C32_32
REMARK    5  A    between atoms: O5_5  and  C21_21
REMARK    6  A    between atoms: O6_6  and  C23_23
REMARK    7  A    between atoms: O7_7  and  C26_26
REMARK    8  A    between atoms: O9_9  and  C29_29
REMARK    9  A    between atoms: O10_10  and  C31_31
REMARK   10  A    between atoms: O11_11  and  C33_33
REMARK   11  A    between atoms: O12_12  and  C34_34
REMARK   12  A    between atoms: O13_13  and  C38_38
REMARK   13  A    between atoms: O14_14  and  C39_39
REMARK   14  A    between atoms: O15_15  and  C40_40
REMARK   15  A    between atoms: O16_16  and  C42_42
REMARK   16  A    between atoms: O17_17  and  C43_43
REMARK   17  A    between atoms: O18_18  and  C44_44
REMARK   18  A    between atoms: N19_19  and  C20_20
REMARK   19  A    between atoms: N19_19  and  C28_28
REMARK   20  A    between atoms: C24_24  and  C35_35
REMARK   21  A    between atoms: C27_27  and  C39_39
REMARK   22  A    between atoms: C36_36  and  C43_43
REMARK   23  A    between atoms: C41_41  and  C44_44
REMARK                            x       y       z     vdW  Elec       q    Type
REMARK                         _______ _______ _______ _____ _____    ______ ____
ROOT
ATOM      1  O1  UNK     0      35.565  19.035 199.030  0.00  0.00    +0.000 OA
ENDROOT
BRANCH   1   7
ATOM      2  O2  UNK     0      35.038  19.129 196.751  0.00  0.00    +0.000 OA
ATOM      3  C20 UNK     0      33.430  17.596 195.675  0.00  0.00    +0.000 C 
ATOM      4  C21 UNK     0      32.980  17.130 197.073  0.00  0.00    +0.000 C 
ATOM      5  C23 UNK     0      34.031  17.413 198.151  0.00  0.00    +0.000 C 
ATOM      6  C24 UNK     0      34.079  18.997 195.694  0.00  0.00    +0.000 C 
ATOM      7  C25 UNK     0      34.538  18.854 198.057  0.00  0.00    +0.000 C 
ATOM      8  C35 UNK     0      33.061  20.139 195.734  0.00  0.00    +0.000 C 
BRANCH   4   9
ATOM      9  O5  UNK     0      31.773  17.798 197.439  0.00  0.00    +0.000 OA
ATOM     10  H70 UNK     0      31.547  17.522 198.344  0.00  0.00    +0.000 HD
ENDBRANCH   4   9
BRANCH   5  11
ATOM     11  O6  UNK     0      35.138  16.526 197.994  0.00  0.00    +0.000 OA
ATOM     12  H72 UNK     0      35.814  16.783 198.644  0.00  0.00    +0.000 HD
ENDBRANCH   5  11
BRANCH   3  13
ATOM     13  N19 UNK     0      34.405  16.637 195.135  0.00  0.00    +0.000 NA
ATOM     14  H55 UNK     0      33.957  16.036 194.446  0.00  0.00    +0.000 HD
BRANCH  13  15
ATOM     15  C28 UNK     0      35.545  17.341 194.541  0.00  0.00    +0.000 C 
ATOM     16  C31 UNK     0      35.420  17.385 193.002  0.00  0.00    +0.000 C 
ATOM     17  C33 UNK     0      36.723  17.872 192.352  0.00  0.00    +0.000 C 
ATOM     18  C37 UNK     0      36.854  16.763 195.011  0.00  0.00    +0.000 C 
ATOM     19  C38 UNK     0      37.938  17.021 192.767  0.00  0.00    +0.000 C 
ATOM     20  C41 UNK     0      37.930  16.602 194.220  0.00  0.00    +0.000 C 
BRANCH  16  21
ATOM     21  O10 UNK     0      35.074  16.106 192.470  0.00  0.00    +0.000 OA
ATOM     22  H77 UNK     0      34.156  15.920 192.726  0.00  0.00    +0.000 HD
ENDBRANCH  16  21
BRANCH  17  23
ATOM     23  O11 UNK     0      36.970  19.225 192.733  0.00  0.00    +0.000 OA
ATOM     24  H80 UNK     0      36.800  19.786 191.957  0.00  0.00    +0.000 HD
ENDBRANCH  17  23
BRANCH  19  25
ATOM     25  O13 UNK     0      37.984  15.834 191.975  0.00  0.00    +0.000 OA
ATOM     26  H82 UNK     0      38.920  15.626 191.812  0.00  0.00    +0.000 HD
ENDBRANCH  19  25
BRANCH  20  27
ATOM     27  C44 UNK     0      39.206  16.010 194.748  0.00  0.00    +0.000 C 
BRANCH  27  28
ATOM     28  O18 UNK     0      39.182  16.014 196.162  0.00  0.00    +0.000 OA
ATOM     29  H87 UNK     0      38.671  15.236 196.444  0.00  0.00    +0.000 HD
ENDBRANCH  27  28
ENDBRANCH  20  27
ENDBRANCH  13  15
ENDBRANCH   3  13
ENDBRANCH   1   7
BRANCH   1  31
ATOM     30  O3  UNK     0      38.309  17.966 198.561  0.00  0.00    +0.000 OA
ATOM     31  C22 UNK     0      36.660  19.789 198.498  0.00  0.00    +0.000 C 
ATOM     32  C26 UNK     0      37.374  20.464 199.675  0.00  0.00    +0.000 C 
ATOM     33  C27 UNK     0      37.561  18.833 197.698  0.00  0.00    +0.000 C 
ATOM     34  C29 UNK     0      38.231  19.473 200.466  0.00  0.00    +0.000 C 
ATOM     35  C30 UNK     0      39.108  18.632 199.535  0.00  0.00    +0.000 C 
BRANCH  32  36
ATOM     36  O7  UNK     0      38.215  21.510 199.201  0.00  0.00    +0.000 OA
ATOM     37  H73 UNK     0      38.103  22.270 199.796  0.00  0.00    +0.000 HD
ENDBRANCH  32  36
BRANCH  34  38
ATOM     38  O9  UNK     0      37.385  18.614 201.231  0.00  0.00    +0.000 OA
ATOM     39  H74 UNK     0      37.042  19.130 201.980  0.00  0.00    +0.000 HD
ENDBRANCH  34  38
BRANCH  35  40
ATOM     40  O4  UNK     0      39.824  17.684 200.324  0.00  0.00    +0.000 OA
BRANCH  40  42
ATOM     41  O8  UNK     0      39.639  14.004 200.209  0.00  0.00    +0.000 OA
ATOM     42  C32 UNK     0      39.812  16.392 199.721  0.00  0.00    +0.000 C 
ATOM     43  C34 UNK     0      41.175  16.164 199.063  0.00  0.00    +0.000 C 
ATOM     44  C36 UNK     0      39.517  15.315 200.773  0.00  0.00    +0.000 C 
ATOM     45  C40 UNK     0      41.308  14.717 198.592  0.00  0.00    +0.000 C 
ATOM     46  C42 UNK     0      40.945  13.727 199.700  0.00  0.00    +0.000 C 
BRANCH  43  47
ATOM     47  O12 UNK     0      41.277  17.035 197.933  0.00  0.00    +0.000 OA
ATOM     48  H81 UNK     0      40.553  16.824 197.319  0.00  0.00    +0.000 HD
ENDBRANCH  43  47
BRANCH  45  49
ATOM     49  O15 UNK     0      42.638  14.489 198.142  0.00  0.00    +0.000 OA
ATOM     50  H84 UNK     0      43.219  14.504 198.923  0.00  0.00    +0.000 HD
ENDBRANCH  45  49
BRANCH  46  51
ATOM     51  O16 UNK     0      41.928  13.675 200.732  0.00  0.00    +0.000 OA
ATOM     52  H85 UNK     0      41.757  12.873 201.252  0.00  0.00    +0.000 HD
ENDBRANCH  46  51
BRANCH  44  53
ATOM     53  C43 UNK     0      38.100  15.431 201.330  0.00  0.00    +0.000 C 
BRANCH  53  54
ATOM     54  O17 UNK     0      37.236  15.832 200.283  0.00  0.00    +0.000 OA
ATOM     55  H86 UNK     0      36.363  15.996 200.678  0.00  0.00    +0.000 HD
ENDBRANCH  53  54
ENDBRANCH  44  53
ENDBRANCH  40  42
ENDBRANCH  35  40
BRANCH  33  56
ATOM     56  C39 UNK     0      38.475  19.542 196.700  0.00  0.00    +0.000 C 
BRANCH  56  57
ATOM     57  O14 UNK     0      37.681  20.049 195.644  0.00  0.00    +0.000 OA
ATOM     58  H83 UNK     0      37.459  20.968 195.867  0.00  0.00    +0.000 HD
ENDBRANCH  56  57
ENDBRANCH  33  56
ENDBRANCH   1  31
TORSDOF 22
ENDMDL
MODEL 2
REMARK VINA RESULT:    -2.940      3.347      8.118
REMARK INTER + INTRA:          -9.632
REMARK INTER:                  -5.930
REMARK INTRA:                  -3.702
REMARK UNBOUND:                -3.683
REMARK  Name = HEMCA.pdb
REMARK  4 active torsions:
REMARK  status: ('A' for Active; 'I' for Inactive)
REMARK    1  A    between atoms: C5_5  and  O19_19
REMARK    2  A    between atoms: C6_6  and  O18_18
REMARK    3  A    between atoms: C7_7  and  O20_20
REMARK    4  A    between atoms: C17_17  and  O21_21
REMARK                            x       y       z     vdW  Elec       q    Type
REMARK                         _______ _______ _______ _____ _____    ______ ____
ROOT
ATOM      1  C1  UNK H   1      36.526  15.761 194.818  0.00  0.00    +0.000 A 
ATOM      2  C2  UNK H   1      37.456  16.633 195.205  0.00  0.00    +0.000 A 
ATOM      3  C3  UNK H   1      35.519  15.282 195.786  0.00  0.00    +0.000 A 
ATOM      4  C4  UNK H   1      37.488  17.104 196.591  0.00  0.00    +0.000 A 
ATOM      5  C5  UNK H   1      35.562  15.704 197.047  0.00  0.00    +0.000 A 
ATOM      6  C6  UNK H   1      36.592  16.655 197.469  0.00  0.00    +0.000 A 
ATOM      7  C7  UNK H   1      35.524  14.085 193.212  0.00  0.00    +0.000 C 
ATOM      8  C8  UNK H   1      36.457  15.196 193.466  0.00  0.00    +0.000 C 
ATOM      9  C9  UNK H   1      34.223  14.186 194.007  0.00  0.00    +0.000 C 
ATOM     10  O10 UNK H   1      34.506  14.411 195.384  0.00  0.00    +0.000 OA
ATOM     11  C11 UNK H   1      35.422  13.973 191.657  0.00  0.00    +0.000 C 
ATOM     12  C12 UNK H   1      36.730  14.626 191.311  0.00  0.00    +0.000 C 
ATOM     13  C13 UNK H   1      37.208  15.420 192.387  0.00  0.00    +0.000 C 
ATOM     14  C14 UNK H   1      37.318  14.614 190.121  0.00  0.00    +0.000 C 
ATOM     15  C15 UNK H   1      38.525  15.437 189.946  0.00  0.00    +0.000 C 
ATOM     16  C16 UNK H   1      38.346  16.322 192.219  0.00  0.00    +0.000 C 
ATOM     17  C17 UNK H   1      38.984  16.323 191.046  0.00  0.00    +0.000 C 
ATOM     18  O22 UNK H   1      39.124  15.435 188.865  0.00  0.00    +0.000 OA
ENDROOT
BRANCH   6  19
ATOM     19  O18 UNK H   1      36.626  17.102 198.785  0.00  0.00    +0.000 OA
ATOM     20  H9  UNK H   1      35.853  16.646 199.330  0.00  0.00    +0.000 HD
ENDBRANCH   6  19
BRANCH   5  21
ATOM     21  O19 UNK H   1      34.611  15.262 197.959  0.00  0.00    +0.000 OA
ATOM     22  H10 UNK H   1      35.050  15.171 198.908  0.00  0.00    +0.000 HD
ENDBRANCH   5  21
BRANCH   7  23
ATOM     23  O20 UNK H   1      36.248  12.945 193.679  0.00  0.00    +0.000 OA
ATOM     24  H11 UNK H   1      37.224  13.232 193.939  0.00  0.00    +0.000 HD
ENDBRANCH   7  23
BRANCH  17  25
ATOM     25  O21 UNK H   1      40.081  17.155 190.855  0.00  0.00    +0.000 OA
ATOM     26  H12 UNK H   1      40.410  17.078 189.861  0.00  0.00    +0.000 HD
ENDBRANCH  17  25
TORSDOF 4
REMARK  Name = Acarbose.pdb
REMARK  23 active torsions:
REMARK  status: ('A' for Active; 'I' for Inactive)
REMARK    1  A    between atoms: O1_1  and  C22_22
REMARK    2  A    between atoms: O1_1  and  C25_25
REMARK    3  A    between atoms: O4_4  and  C30_30
REMARK    4  A    between atoms: O4_4  and  C32_32
REMARK    5  A    between atoms: O5_5  and  C21_21
REMARK    6  A    between atoms: O6_6  and  C23_23
REMARK    7  A    between atoms: O7_7  and  C26_26
REMARK    8  A    between atoms: O9_9  and  C29_29
REMARK    9  A    between atoms: O10_10  and  C31_31
REMARK   10  A    between atoms: O11_11  and  C33_33
REMARK   11  A    between atoms: O12_12  and  C34_34
REMARK   12  A    between atoms: O13_13  and  C38_38
REMARK   13  A    between atoms: O14_14  and  C39_39
REMARK   14  A    between atoms: O15_15  and  C40_40
REMARK   15  A    between atoms: O16_16  and  C42_42
REMARK   16  A    between atoms: O17_17  and  C43_43
REMARK   17  A    between atoms: O18_18  and  C44_44
REMARK   18  A    between atoms: N19_19  and  C20_20
REMARK   19  A    between atoms: N19_19  and  C28_28
REMARK   20  A    between atoms: C24_24  and  C35_35
REMARK   21  A    between atoms: C27_27  and  C39_39
REMARK   22  A    between atoms: C36_36  and  C43_43
REMARK   23  A    between atoms: C41_41  and  C44_44
REMARK                            x       y       z     vdW  Elec       q    Type
REMARK                         _______ _______ _______ _____ _____    ______ ____
ROOT
ATOM      1  O1  UNK     0      39.001  10.984 197.523  0.00  0.00    +0.000 OA
ENDROOT
BRANCH   1   7
ATOM      2  O2  UNK     0      40.815  12.023 196.469  0.00  0.00    +0.000 OA
ATOM      3  C20 UNK     0      41.016  14.473 196.237  0.00  0.00    +0.000 C 
ATOM      4  C21 UNK     0      39.850  14.635 197.232  0.00  0.00    +0.000 C 
ATOM      5  C23 UNK     0      38.985  13.376 197.330  0.00  0.00    +0.000 C 
ATOM      6  C24 UNK     0      41.739  13.117 196.384  0.00  0.00    +0.000 C 
ATOM      7  C25 UNK     0      39.852  12.129 197.516  0.00  0.00    +0.000 C 
ATOM      8  C35 UNK     0      42.737  13.080 197.542  0.00  0.00    +0.000 C 
BRANCH   4   9
ATOM      9  O5  UNK     0      40.362  14.931 198.531  0.00  0.00    +0.000 OA
ATOM     10  H70 UNK     0      39.664  14.719 199.176  0.00  0.00    +0.000 HD
ENDBRANCH   4   9
BRANCH   5  11
ATOM     11  O6  UNK     0      38.210  13.225 196.141  0.00  0.00    +0.000 OA
ATOM     12  H72 UNK     0      37.451  13.829 196.208  0.00  0.00    +0.000 HD
ENDBRANCH   5  11
BRANCH   3  13
ATOM     13  N19 UNK     0      40.501  14.583 194.865  0.00  0.00    +0.000 NA
ATOM     14  H55 UNK     0      40.729  15.498 194.480  0.00  0.00    +0.000 HD
BRANCH  13  15
ATOM     15  C28 UNK     0      41.053  13.518 194.022  0.00  0.00    +0.000 C 
ATOM     16  C31 UNK     0      42.211  14.052 193.152  0.00  0.00    +0.000 C 
ATOM     17  C33 UNK     0      42.617  13.033 192.079  0.00  0.00    +0.000 C 
ATOM     18  C37 UNK     0      39.974  12.841 193.217  0.00  0.00    +0.000 C 
ATOM     19  C38 UNK     0      41.430  12.615 191.190  0.00  0.00    +0.000 C 
ATOM     20  C41 UNK     0      40.128  12.443 191.941  0.00  0.00    +0.000 C 
BRANCH  16  21
ATOM     21  O10 UNK     0      41.868  15.288 192.527  0.00  0.00    +0.000 OA
ATOM     22  H77 UNK     0      42.186  15.251 191.609  0.00  0.00    +0.000 HD
ENDBRANCH  16  21
BRANCH  17  23
ATOM     23  O11 UNK     0      43.143  11.863 192.704  0.00  0.00    +0.000 OA
ATOM     24  H80 UNK     0      43.110  12.003 193.666  0.00  0.00    +0.000 HD
ENDBRANCH  17  23
BRANCH  19  25
ATOM     25  O13 UNK     0      41.219  13.600 190.179  0.00  0.00    +0.000 OA
ATOM     26  H82 UNK     0      41.387  13.179 189.319  0.00  0.00    +0.000 HD
ENDBRANCH  19  25
BRANCH  20  27
ATOM     27  C44 UNK     0      39.010  11.780 191.189  0.00  0.00    +0.000 C 
BRANCH  27  28
ATOM     28  O18 UNK     0      38.050  11.286 192.103  0.00  0.00    +0.000 OA
ATOM     29  H87 UNK     0      38.137  10.318 192.117  0.00  0.00    +0.000 HD
ENDBRANCH  27  28
ENDBRANCH  20  27
ENDBRANCH  13  15
ENDBRANCH   3  13
ENDBRANCH   1   7
BRANCH   1  31
ATOM     30  O3  UNK     0      37.887   9.900 194.978  0.00  0.00    +0.000 OA
ATOM     31  C22 UNK     0      39.570   9.907 196.771  0.00  0.00    +0.000 C 
ATOM     32  C26 UNK     0      38.982   8.600 197.316  0.00  0.00    +0.000 C 
ATOM     33  C27 UNK     0      39.267  10.143 195.282  0.00  0.00    +0.000 C 
ATOM     34  C29 UNK     0      37.542   8.382 196.844  0.00  0.00    +0.000 C 
ATOM     35  C30 UNK     0      37.414   8.604 195.335  0.00  0.00    +0.000 C 
BRANCH  32  36
ATOM     36  O7  UNK     0      39.770   7.494 196.887  0.00  0.00    +0.000 OA
ATOM     37  H73 UNK     0      39.247   6.687 197.030  0.00  0.00    +0.000 HD
ENDBRANCH  32  36
BRANCH  34  38
ATOM     38  O9  UNK     0      36.672   9.279 197.536  0.00  0.00    +0.000 OA
ATOM     39  H74 UNK     0      36.801   9.135 198.489  0.00  0.00    +0.000 HD
ENDBRANCH  34  38
BRANCH  35  40
ATOM     40  O4  UNK     0      36.042   8.458 194.974  0.00  0.00    +0.000 OA
BRANCH  40  42
ATOM     41  O8  UNK     0      33.788  10.987 193.519  0.00  0.00    +0.000 OA
ATOM     42  C32 UNK     0      35.633   9.481 194.068  0.00  0.00    +0.000 C 
ATOM     43  C34 UNK     0      35.558   8.871 192.667  0.00  0.00    +0.000 C 
ATOM     44  C36 UNK     0      34.276  10.059 194.494  0.00  0.00    +0.000 C 
ATOM     45  C40 UNK     0      34.913   9.851 191.688  0.00  0.00    +0.000 C 
ATOM     46  C42 UNK     0      33.593  10.403 192.229  0.00  0.00    +0.000 C 
BRANCH  43  47
ATOM     47  O12 UNK     0      36.890   8.585 192.232  0.00  0.00    +0.000 OA
ATOM     48  H81 UNK     0      37.091   7.660 192.453  0.00  0.00    +0.000 HD
ENDBRANCH  43  47
BRANCH  45  49
ATOM     49  O15 UNK     0      34.701   9.200 190.441  0.00  0.00    +0.000 OA
ATOM     50  H84 UNK     0      35.140   9.731 189.754  0.00  0.00    +0.000 HD
ENDBRANCH  45  49
BRANCH  46  51
ATOM     51  O16 UNK     0      32.550   9.429 192.229  0.00  0.00    +0.000 OA
ATOM     52  H85 UNK     0      31.735   9.882 192.503  0.00  0.00    +0.000 HD
ENDBRANCH  46  51
BRANCH  44  53
ATOM     53  C43 UNK     0      34.364  10.809 195.821  0.00  0.00    +0.000 C 
BRANCH  53  54
ATOM     54  O17 UNK     0      35.608  11.483 195.875  0.00  0.00    +0.000 OA
ATOM     55  H86 UNK     0      36.197  11.051 195.233  0.00  0.00    +0.000 HD
ENDBRANCH  53  54
ENDBRANCH  44  53
ENDBRANCH  40  42
ENDBRANCH  35  40
BRANCH  33  56
ATOM     56  C39 UNK     0      40.185   9.370 194.338  0.00  0.00    +0.000 C 
BRANCH  56  57
ATOM     57  O14 UNK     0      41.479   9.942 194.399  0.00  0.00    +0.000 OA
ATOM     58  H83 UNK     0      42.105   9.217 194.564  0.00  0.00    +0.000 HD
ENDBRANCH  56  57
ENDBRANCH  33  56
ENDBRANCH   1  31
TORSDOF 22
ENDMDL
MODEL 3
REMARK VINA RESULT:    -2.901      3.271      8.233
REMARK INTER + INTRA:          -9.551
REMARK INTER:                  -6.031
REMARK INTRA:                  -3.520
REMARK UNBOUND:                -3.683
REMARK  Name = HEMCA.pdb
REMARK  4 active torsions:
REMARK  status: ('A' for Active; 'I' for Inactive)
REMARK    1  A    between atoms: C5_5  and  O19_19
REMARK    2  A    between atoms: C6_6  and  O18_18
REMARK    3  A    between atoms: C7_7  and  O20_20
REMARK    4  A    between atoms: C17_17  and  O21_21
REMARK                            x       y       z     vdW  Elec       q    Type
REMARK                         _______ _______ _______ _____ _____    ______ ____
ROOT
ATOM      1  C1  UNK H   1      37.739  16.486 202.840  0.00  0.00    +0.000 A 
ATOM      2  C2  UNK H   1      38.249  15.308 203.198  0.00  0.00    +0.000 A 
ATOM      3  C3  UNK H   1      36.385  16.552 202.255  0.00  0.00    +0.000 A 
ATOM      4  C4  UNK H   1      37.475  14.082 202.999  0.00  0.00    +0.000 A 
ATOM      5  C5  UNK H   1      35.692  15.432 202.064  0.00  0.00    +0.000 A 
ATOM      6  C6  UNK H   1      36.262  14.141 202.451  0.00  0.00    +0.000 A 
ATOM      7  C7  UNK H   1      37.891  18.957 202.330  0.00  0.00    +0.000 C 
ATOM      8  C8  UNK H   1      38.469  17.753 202.952  0.00  0.00    +0.000 C 
ATOM      9  C9  UNK H   1      36.365  19.007 202.396  0.00  0.00    +0.000 C 
ATOM     10  O10 UNK H   1      35.814  17.781 201.924  0.00  0.00    +0.000 OA
ATOM     11  C11 UNK H   1      38.686  20.160 202.932  0.00  0.00    +0.000 C 
ATOM     12  C12 UNK H   1      39.931  19.417 203.324  0.00  0.00    +0.000 C 
ATOM     13  C13 UNK H   1      39.685  18.021 203.429  0.00  0.00    +0.000 C 
ATOM     14  C14 UNK H   1      41.087  19.962 203.683  0.00  0.00    +0.000 C 
ATOM     15  C15 UNK H   1      42.144  19.064 204.175  0.00  0.00    +0.000 C 
ATOM     16  C16 UNK H   1      40.678  17.115 204.002  0.00  0.00    +0.000 C 
ATOM     17  C17 UNK H   1      41.864  17.617 204.352  0.00  0.00    +0.000 C 
ATOM     18  O22 UNK H   1      43.246  19.523 204.493  0.00  0.00    +0.000 OA
ENDROOT
BRANCH   6  19
ATOM     19  O18 UNK H   1      35.530  12.974 202.260  0.00  0.00    +0.000 OA
ATOM     20  H9  UNK H   1      35.889  12.470 201.411  0.00  0.00    +0.000 HD
ENDBRANCH   6  19
BRANCH   5  21
ATOM     21  O19 UNK H   1      34.414  15.492 201.521  0.00  0.00    +0.000 OA
ATOM     22  H10 UNK H   1      34.169  14.564 201.096  0.00  0.00    +0.000 HD
ENDBRANCH   5  21
BRANCH   7  23
ATOM     23  O20 UNK H   1      38.278  18.826 200.961  0.00  0.00    +0.000 OA
ATOM     24  H11 UNK H   1      39.286  18.539 200.907  0.00  0.00    +0.000 HD
ENDBRANCH   7  23
BRANCH  17  25
ATOM     25  O21 UNK H   1      42.839  16.782 204.885  0.00  0.00    +0.000 OA
ATOM     26  H12 UNK H   1      42.656  16.638 205.909  0.00  0.00    +0.000 HD
ENDBRANCH  17  25
TORSDOF 4
REMARK  Name = Acarbose.pdb
REMARK  23 active torsions:
REMARK  status: ('A' for Active; 'I' for Inactive)
REMARK    1  A    between atoms: O1_1  and  C22_22
REMARK    2  A    between atoms: O1_1  and  C25_25
REMARK    3  A    between atoms: O4_4  and  C30_30
REMARK    4  A    between atoms: O4_4  and  C32_32
REMARK    5  A    between atoms: O5_5  and  C21_21
REMARK    6  A    between atoms: O6_6  and  C23_23
REMARK    7  A    between atoms: O7_7  and  C26_26
REMARK    8  A    between atoms: O9_9  and  C29_29
REMARK    9  A    between atoms: O10_10  and  C31_31
REMARK   10  A    between atoms: O11_11  and  C33_33
REMARK   11  A    between atoms: O12_12  and  C34_34
REMARK   12  A    between atoms: O13_13  and  C38_38
REMARK   13  A    between atoms: O14_14  and  C39_39
REMARK   14  A    between atoms: O15_15  and  C40_40
REMARK   15  A    between atoms: O16_16  and  C42_42
REMARK   16  A    between atoms: O17_17  and  C43_43
REMARK   17  A    between atoms: O18_18  and  C44_44
REMARK   18  A    between atoms: N19_19  and  C20_20
REMARK   19  A    between atoms: N19_19  and  C28_28
REMARK   20  A    between atoms: C24_24  and  C35_35
REMARK   21  A    between atoms: C27_27  and  C39_39
REMARK   22  A    between atoms: C36_36  and  C43_43
REMARK   23  A    between atoms: C41_41  and  C44_44
REMARK                            x       y       z     vdW  Elec       q    Type
REMARK                         _______ _______ _______ _____ _____    ______ ____
ROOT
ATOM      1  O1  UNK     0      38.490  15.652 196.850  0.00  0.00    +0.000 OA
ENDROOT
BRANCH   1   7
ATOM      2  O2  UNK     0      40.520  15.013 197.827  0.00  0.00    +0.000 OA
ATOM      3  C20 UNK     0      40.669  13.949 200.050  0.00  0.00    +0.000 C 
ATOM      4  C21 UNK     0      39.142  13.746 200.025  0.00  0.00    +0.000 C 
ATOM      5  C23 UNK     0      38.440  14.696 199.050  0.00  0.00    +0.000 C 
ATOM      6  C24 UNK     0      41.272  14.101 198.636  0.00  0.00    +0.000 C 
ATOM      7  C25 UNK     0      39.136  14.695 197.688  0.00  0.00    +0.000 C 
ATOM      8  C35 UNK     0      41.473  12.767 197.913  0.00  0.00    +0.000 C 
BRANCH   4   9
ATOM      9  O5  UNK     0      38.840  12.405 199.639  0.00  0.00    +0.000 OA
ATOM     10  H70 UNK     0      37.961  12.411 199.221  0.00  0.00    +0.000 HD
ENDBRANCH   4   9
BRANCH   5  11
ATOM     11  O6  UNK     0      38.454  16.024 199.573  0.00  0.00    +0.000 OA
ATOM     12  H72 UNK     0      37.967  16.589 198.949  0.00  0.00    +0.000 HD
ENDBRANCH   5  11
BRANCH   3  13
ATOM     13  N19 UNK     0      40.985  15.157 200.825  0.00  0.00    +0.000 NA
ATOM     14  H55 UNK     0      41.301  14.899 201.758  0.00  0.00    +0.000 HD
BRANCH  13  15
ATOM     15  C28 UNK     0      42.004  15.957 200.139  0.00  0.00    +0.000 C 
ATOM     16  C31 UNK     0      43.412  15.638 200.688  0.00  0.00    +0.000 C 
ATOM     17  C33 UNK     0      44.449  16.649 200.179  0.00  0.00    +0.000 C 
ATOM     18  C37 UNK     0      41.671  17.426 200.184  0.00  0.00    +0.000 C 
ATOM     19  C38 UNK     0      44.061  18.103 200.512  0.00  0.00    +0.000 C 
ATOM     20  C41 UNK     0      42.585  18.397 200.364  0.00  0.00    +0.000 C 
BRANCH  16  21
ATOM     21  O10 UNK     0      43.424  15.623 202.115  0.00  0.00    +0.000 OA
ATOM     22  H77 UNK     0      42.581  15.996 202.420  0.00  0.00    +0.000 HD
ENDBRANCH  16  21
BRANCH  17  23
ATOM     23  O11 UNK     0      44.578  16.532 198.763  0.00  0.00    +0.000 OA
ATOM     24  H80 UNK     0      45.370  17.029 198.497  0.00  0.00    +0.000 HD
ENDBRANCH  17  23
BRANCH  19  25
ATOM     25  O13 UNK     0      44.428  18.399 201.859  0.00  0.00    +0.000 OA
ATOM     26  H82 UNK     0      44.734  17.572 202.269  0.00  0.00    +0.000 HD
ENDBRANCH  19  25
BRANCH  20  27
ATOM     27  C44 UNK     0      42.188  19.845 200.407  0.00  0.00    +0.000 C 
BRANCH  27  28
ATOM     28  O18 UNK     0      40.847  19.983 199.980  0.00  0.00    +0.000 OA
ATOM     29  H87 UNK     0      40.511  20.817 200.349  0.00  0.00    +0.000 HD
ENDBRANCH  27  28
ENDBRANCH  20  27
ENDBRANCH  13  15
ENDBRANCH   3  13
ENDBRANCH   1   7
BRANCH   1  31
ATOM     30  O3  UNK     0      38.980  18.540 197.406  0.00  0.00    +0.000 OA
ATOM     31  C22 UNK     0      39.442  16.470 196.162  0.00  0.00    +0.000 C 
ATOM     32  C26 UNK     0      38.742  17.062 194.933  0.00  0.00    +0.000 C 
ATOM     33  C27 UNK     0      39.965  17.533 197.143  0.00  0.00    +0.000 C 
ATOM     34  C29 UNK     0      37.794  18.204 195.312  0.00  0.00    +0.000 C 
ATOM     35  C30 UNK     0      38.476  19.203 196.248  0.00  0.00    +0.000 C 
BRANCH  32  36
ATOM     36  O7  UNK     0      39.708  17.564 194.015  0.00  0.00    +0.000 OA
ATOM     37  H73 UNK     0      40.388  18.030 194.530  0.00  0.00    +0.000 HD
ENDBRANCH  32  36
BRANCH  34  38
ATOM     38  O9  UNK     0      36.633  17.668 195.946  0.00  0.00    +0.000 OA
ATOM     39  H74 UNK     0      36.663  17.930 196.882  0.00  0.00    +0.000 HD
ENDBRANCH  34  38
BRANCH  35  40
ATOM     40  O4  UNK     0      37.522  20.196 196.620  0.00  0.00    +0.000 OA
BRANCH  40  42
ATOM     41  O8  UNK     0      36.308  21.091 199.983  0.00  0.00    +0.000 OA
ATOM     42  C32 UNK     0      37.624  20.521 198.005  0.00  0.00    +0.000 C 
ATOM     43  C34 UNK     0      38.389  21.840 198.126  0.00  0.00    +0.000 C 
ATOM     44  C36 UNK     0      36.227  20.630 198.630  0.00  0.00    +0.000 C 
ATOM     45  C40 UNK     0      38.339  22.358 199.563  0.00  0.00    +0.000 C 
ATOM     46  C42 UNK     0      36.910  22.382 200.106  0.00  0.00    +0.000 C 
BRANCH  43  47
ATOM     47  O12 UNK     0      39.751  21.603 197.762  0.00  0.00    +0.000 OA
ATOM     48  H81 UNK     0      40.031  20.762 198.161  0.00  0.00    +0.000 HD
ENDBRANCH  43  47
BRANCH  45  49
ATOM     49  O15 UNK     0      38.907  23.663 199.613  0.00  0.00    +0.000 OA
ATOM     50  H84 UNK     0      39.372  23.813 198.771  0.00  0.00    +0.000 HD
ENDBRANCH  45  49
BRANCH  46  51
ATOM     51  O16 UNK     0      36.114  23.407 199.513  0.00  0.00    +0.000 OA
ATOM     52  H85 UNK     0      36.724  24.083 199.174  0.00  0.00    +0.000 HD
ENDBRANCH  46  51
BRANCH  44  53
ATOM     53  C43 UNK     0      35.506  19.284 198.660  0.00  0.00    +0.000 C 
BRANCH  53  54
ATOM     54  O17 UNK     0      36.461  18.267 198.896  0.00  0.00    +0.000 OA
ATOM     55  H86 UNK     0      37.333  18.636 198.678  0.00  0.00    +0.000 HD
ENDBRANCH  53  54
ENDBRANCH  44  53
ENDBRANCH  40  42
ENDBRANCH  35  40
BRANCH  33  56
ATOM     56  C39 UNK     0      41.295  18.156 196.722  0.00  0.00    +0.000 C 
BRANCH  56  57
ATOM     57  O14 UNK     0      42.296  17.156 196.771  0.00  0.00    +0.000 OA
ATOM     58  H83 UNK     0      43.143  17.606 196.928  0.00  0.00    +0.000 HD
ENDBRANCH  56  57
ENDBRANCH  33  56
ENDBRANCH   1  31
TORSDOF 22
ENDMDL
MODEL 4
REMARK VINA RESULT:    -2.899      2.184      6.771
REMARK INTER + INTRA:          -9.549
REMARK INTER:                  -5.892
REMARK INTRA:                  -3.657
REMARK UNBOUND:                -3.683
REMARK  Name = HEMCA.pdb
REMARK  4 active torsions:
REMARK  status: ('A' for Active; 'I' for Inactive)
REMARK    1  A    between atoms: C5_5  and  O19_19
REMARK    2  A    between atoms: C6_6  and  O18_18
REMARK    3  A    between atoms: C7_7  and  O20_20
REMARK    4  A    between atoms: C17_17  and  O21_21
REMARK                            x       y       z     vdW  Elec       q    Type
REMARK                         _______ _______ _______ _____ _____    ______ ____
ROOT
ATOM      1  C1  UNK H   1      34.509  13.580 195.650  0.00  0.00    +0.000 A 
ATOM      2  C2  UNK H   1      34.230  13.451 196.947  0.00  0.00    +0.000 A 
ATOM      3  C3  UNK H   1      35.404  12.609 194.991  0.00  0.00    +0.000 A 
ATOM      4  C4  UNK H   1      34.820  12.355 197.718  0.00  0.00    +0.000 A 
ATOM      5  C5  UNK H   1      35.947  11.623 195.701  0.00  0.00    +0.000 A 
ATOM      6  C6  UNK H   1      35.644  11.492 197.127  0.00  0.00    +0.000 A 
ATOM      7  C7  UNK H   1      34.550  14.841 193.460  0.00  0.00    +0.000 C 
ATOM      8  C8  UNK H   1      34.006  14.680 194.819  0.00  0.00    +0.000 C 
ATOM      9  C9  UNK H   1      34.872  13.517 192.769  0.00  0.00    +0.000 C 
ATOM     10  O10 UNK H   1      35.663  12.698 193.623  0.00  0.00    +0.000 OA
ATOM     11  C11 UNK H   1      33.575  15.824 192.735  0.00  0.00    +0.000 C 
ATOM     12  C12 UNK H   1      33.003  16.492 193.952  0.00  0.00    +0.000 C 
ATOM     13  C13 UNK H   1      33.196  15.697 195.114  0.00  0.00    +0.000 C 
ATOM     14  C14 UNK H   1      32.274  17.601 193.966  0.00  0.00    +0.000 C 
ATOM     15  C15 UNK H   1      31.682  18.017 195.247  0.00  0.00    +0.000 C 
ATOM     16  C16 UNK H   1      32.543  16.028 196.379  0.00  0.00    +0.000 C 
ATOM     17  C17 UNK H   1      31.822  17.149 196.444  0.00  0.00    +0.000 C 
ATOM     18  O22 UNK H   1      31.020  19.058 195.314  0.00  0.00    +0.000 OA
ENDROOT
BRANCH   6  19
ATOM     19  O18 UNK H   1      36.205  10.454 197.863  0.00  0.00    +0.000 OA
ATOM     20  H9  UNK H   1      35.488   9.701 198.010  0.00  0.00    +0.000 HD
ENDBRANCH   6  19
BRANCH   5  21
ATOM     21  O19 UNK H   1      36.783  10.702 195.081  0.00  0.00    +0.000 OA
ATOM     22  H10 UNK H   1      36.204   9.997 194.561  0.00  0.00    +0.000 HD
ENDBRANCH   5  21
BRANCH   7  23
ATOM     23  O20 UNK H   1      35.776  15.539 193.686  0.00  0.00    +0.000 OA
ATOM     24  H11 UNK H   1      35.900  15.706 194.715  0.00  0.00    +0.000 HD
ENDBRANCH   7  23
BRANCH  17  25
ATOM     25  O21 UNK H   1      31.201  17.505 197.635  0.00  0.00    +0.000 OA
ATOM     26  H12 UNK H   1      31.804  18.190 198.154  0.00  0.00    +0.000 HD
ENDBRANCH  17  25
TORSDOF 4
REMARK  Name = Acarbose.pdb
REMARK  23 active torsions:
REMARK  status: ('A' for Active; 'I' for Inactive)
REMARK    1  A    between atoms: O1_1  and  C22_22
REMARK    2  A    between atoms: O1_1  and  C25_25
REMARK    3  A    between atoms: O4_4  and  C30_30
REMARK    4  A    between atoms: O4_4  and  C32_32
REMARK    5  A    between atoms: O5_5  and  C21_21
REMARK    6  A    between atoms: O6_6  and  C23_23
REMARK    7  A    between atoms: O7_7  and  C26_26
REMARK    8  A    between atoms: O9_9  and  C29_29
REMARK    9  A    between atoms: O10_10  and  C31_31
REMARK   10  A    between atoms: O11_11  and  C33_33
REMARK   11  A    between atoms: O12_12  and  C34_34
REMARK   12  A    between atoms: O13_13  and  C38_38
REMARK   13  A    between atoms: O14_14  and  C39_39
REMARK   14  A    between atoms: O15_15  and  C40_40
REMARK   15  A    between atoms: O16_16  and  C42_42
REMARK   16  A    between atoms: O17_17  and  C43_43
REMARK   17  A    between atoms: O18_18  and  C44_44
REMARK   18  A    between atoms: N19_19  and  C20_20
REMARK   19  A    between atoms: N19_19  and  C28_28
REMARK   20  A    between atoms: C24_24  and  C35_35
REMARK   21  A    between atoms: C27_27  and  C39_39
REMARK   22  A    between atoms: C36_36  and  C43_43
REMARK   23  A    between atoms: C41_41  and  C44_44
REMARK                            x       y       z     vdW  Elec       q    Type
REMARK                         _______ _______ _______ _____ _____    ______ ____
ROOT
ATOM      1  O1  UNK     0      40.105  15.884 196.385  0.00  0.00    +0.000 OA
ENDROOT
BRANCH   1   7
ATOM      2  O2  UNK     0      38.824  16.864 198.082  0.00  0.00    +0.000 OA
ATOM      3  C20 UNK     0      37.009  15.673 199.258  0.00  0.00    +0.000 C 
ATOM      4  C21 UNK     0      37.497  14.357 198.622  0.00  0.00    +0.000 C 
ATOM      5  C23 UNK     0      38.335  14.591 197.362  0.00  0.00    +0.000 C 
ATOM      6  C24 UNK     0      38.115  16.749 199.322  0.00  0.00    +0.000 C 
ATOM      7  C25 UNK     0      39.409  15.653 197.608  0.00  0.00    +0.000 C 
ATOM      8  C35 UNK     0      39.084  16.558 200.490  0.00  0.00    +0.000 C 
BRANCH   4   9
ATOM      9  O5  UNK     0      38.292  13.633 199.561  0.00  0.00    +0.000 OA
ATOM     10  H70 UNK     0      37.744  12.912 199.915  0.00  0.00    +0.000 HD
ENDBRANCH   4   9
BRANCH   5  11
ATOM     11  O6  UNK     0      37.495  15.027 196.294  0.00  0.00    +0.000 OA
ATOM     12  H72 UNK     0      38.054  15.508 195.660  0.00  0.00    +0.000 HD
ENDBRANCH   5  11
BRANCH   3  13
ATOM     13  N19 UNK     0      35.886  16.203 198.473  0.00  0.00    +0.000 NA
ATOM     14  H55 UNK     0      35.006  16.005 198.947  0.00  0.00    +0.000 HD
BRANCH  13  15
ATOM     15  C28 UNK     0      36.042  17.645 198.259  0.00  0.00    +0.000 C 
ATOM     16  C31 UNK     0      35.124  18.443 199.210  0.00  0.00    +0.000 C 
ATOM     17  C33 UNK     0      35.072  19.926 198.819  0.00  0.00    +0.000 C 
ATOM     18  C37 UNK     0      35.850  18.009 196.810  0.00  0.00    +0.000 C 
ATOM     19  C38 UNK     0      34.635  20.131 197.356  0.00  0.00    +0.000 C 
ATOM     20  C41 UNK     0      35.209  19.116 196.393  0.00  0.00    +0.000 C 
BRANCH  16  21
ATOM     21  O10 UNK     0      33.799  17.911 199.226  0.00  0.00    +0.000 OA
ATOM     22  H77 UNK     0      33.849  17.013 199.594  0.00  0.00    +0.000 HD
ENDBRANCH  16  21
BRANCH  17  23
ATOM     23  O11 UNK     0      36.363  20.511 198.988  0.00  0.00    +0.000 OA
ATOM     24  H80 UNK     0      36.785  20.079 199.750  0.00  0.00    +0.000 HD
ENDBRANCH  17  23
BRANCH  19  25
ATOM     25  O13 UNK     0      33.212  20.055 197.267  0.00  0.00    +0.000 OA
ATOM     26  H82 UNK     0      32.986  19.179 196.911  0.00  0.00    +0.000 HD
ENDBRANCH  19  25
BRANCH  20  27
ATOM     27  C44 UNK     0      35.043  19.419 194.931  0.00  0.00    +0.000 C 
BRANCH  27  28
ATOM     28  O18 UNK     0      35.861  18.551 194.170  0.00  0.00    +0.000 OA
ATOM     29  H87 UNK     0      36.757  18.929 194.168  0.00  0.00    +0.000 HD
ENDBRANCH  27  28
ENDBRANCH  20  27
ENDBRANCH  13  15
ENDBRANCH   3  13
ENDBRANCH   1   7
BRANCH   1  31
ATOM     30  O3  UNK     0      38.890  17.520 194.208  0.00  0.00    +0.000 OA
ATOM     31  C22 UNK     0      40.344  17.280 196.176  0.00  0.00    +0.000 C 
ATOM     32  C26 UNK     0      41.576  17.410 195.272  0.00  0.00    +0.000 C 
ATOM     33  C27 UNK     0      39.073  17.904 195.577  0.00  0.00    +0.000 C 
ATOM     34  C29 UNK     0      41.248  17.084 193.813  0.00  0.00    +0.000 C 
ATOM     35  C30 UNK     0      39.989  17.820 193.350  0.00  0.00    +0.000 C 
BRANCH  32  36
ATOM     36  O7  UNK     0      42.089  18.737 195.335  0.00  0.00    +0.000 OA
ATOM     37  H73 UNK     0      42.275  19.023 194.425  0.00  0.00    +0.000 HD
ENDBRANCH  32  36
BRANCH  34  38
ATOM     38  O9  UNK     0      41.060  15.676 193.669  0.00  0.00    +0.000 OA
ATOM     39  H74 UNK     0      41.582  15.238 194.362  0.00  0.00    +0.000 HD
ENDBRANCH  34  38
BRANCH  35  40
ATOM     40  O4  UNK     0      39.699  17.418 192.012  0.00  0.00    +0.000 OA
BRANCH  40  42
ATOM     41  O8  UNK     0      36.744  15.602 190.763  0.00  0.00    +0.000 OA
ATOM     42  C32 UNK     0      38.312  17.133 191.846  0.00  0.00    +0.000 C 
ATOM     43  C34 UNK     0      37.669  18.314 191.116  0.00  0.00    +0.000 C 
ATOM     44  C36 UNK     0      38.127  15.828 191.059  0.00  0.00    +0.000 C 
ATOM     45  C40 UNK     0      36.236  17.978 190.708  0.00  0.00    +0.000 C 
ATOM     46  C42 UNK     0      36.156  16.638 189.974  0.00  0.00    +0.000 C 
BRANCH  43  47
ATOM     47  O12 UNK     0      37.651  19.434 192.005  0.00  0.00    +0.000 OA
ATOM     48  H81 UNK     0      37.584  19.098 192.916  0.00  0.00    +0.000 HD
ENDBRANCH  43  47
BRANCH  45  49
ATOM     49  O15 UNK     0      35.722  19.021 189.887  0.00  0.00    +0.000 OA
ATOM     50  H84 UNK     0      36.360  19.168 189.167  0.00  0.00    +0.000 HD
ENDBRANCH  45  49
BRANCH  46  51
ATOM     51  O16 UNK     0      36.712  16.698 188.662  0.00  0.00    +0.000 OA
ATOM     52  H85 UNK     0      37.657  16.900 188.760  0.00  0.00    +0.000 HD
ENDBRANCH  46  51
BRANCH  44  53
ATOM     53  C43 UNK     0      38.622  14.613 191.839  0.00  0.00    +0.000 C 
BRANCH  53  54
ATOM     54  O17 UNK     0      38.366  14.827 193.215  0.00  0.00    +0.000 OA
ATOM     55  H86 UNK     0      37.457  15.164 193.288  0.00  0.00    +0.000 HD
ENDBRANCH  53  54
ENDBRANCH  44  53
ENDBRANCH  40  42
ENDBRANCH  35  40
BRANCH  33  56
ATOM     56  C39 UNK     0      38.997  19.421 195.741  0.00  0.00    +0.000 C 
BRANCH  56  57
ATOM     57  O14 UNK     0      38.758  19.716 197.105  0.00  0.00    +0.000 OA
ATOM     58  H83 UNK     0      39.623  19.748 197.547  0.00  0.00    +0.000 HD
ENDBRANCH  56  57
ENDBRANCH  33  56
ENDBRANCH   1  31
TORSDOF 22
ENDMDL
MODEL 5
REMARK VINA RESULT:    -2.887      5.190      9.172
REMARK INTER + INTRA:          -9.524
REMARK INTER:                  -6.565
REMARK INTRA:                  -2.959
REMARK UNBOUND:                -3.683
REMARK  Name = HEMCA.pdb
REMARK  4 active torsions:
REMARK  status: ('A' for Active; 'I' for Inactive)
REMARK    1  A    between atoms: C5_5  and  O19_19
REMARK    2  A    between atoms: C6_6  and  O18_18
REMARK    3  A    between atoms: C7_7  and  O20_20
REMARK    4  A    between atoms: C17_17  and  O21_21
REMARK                            x       y       z     vdW  Elec       q    Type
REMARK                         _______ _______ _______ _____ _____    ______ ____
ROOT
ATOM      1  C1  UNK H   1      45.768  16.915 197.757  0.00  0.00    +0.000 A 
ATOM      2  C2  UNK H   1      46.301  17.848 198.545  0.00  0.00    +0.000 A 
ATOM      3  C3  UNK H   1      45.595  17.183 196.315  0.00  0.00    +0.000 A 
ATOM      4  C4  UNK H   1      46.701  19.140 197.985  0.00  0.00    +0.000 A 
ATOM      5  C5  UNK H   1      45.948  18.365 195.815  0.00  0.00    +0.000 A 
ATOM      6  C6  UNK H   1      46.524  19.389 196.689  0.00  0.00    +0.000 A 
ATOM      7  C7  UNK H   1      44.527  14.756 197.327  0.00  0.00    +0.000 C 
ATOM      8  C8  UNK H   1      45.290  15.618 198.246  0.00  0.00    +0.000 C 
ATOM      9  C9  UNK H   1      45.001  14.838 195.877  0.00  0.00    +0.000 C 
ATOM     10  O10 UNK H   1      45.089  16.198 195.466  0.00  0.00    +0.000 OA
ATOM     11  C11 UNK H   1      44.495  13.349 198.005  0.00  0.00    +0.000 C 
ATOM     12  C12 UNK H   1      44.724  13.790 199.423  0.00  0.00    +0.000 C 
ATOM     13  C13 UNK H   1      45.303  15.088 199.469  0.00  0.00    +0.000 C 
ATOM     14  C14 UNK H   1      44.566  13.045 200.509  0.00  0.00    +0.000 C 
ATOM     15  C15 UNK H   1      44.983  13.617 201.799  0.00  0.00    +0.000 C 
ATOM     16  C16 UNK H   1      45.816  15.646 200.718  0.00  0.00    +0.000 C 
ATOM     17  C17 UNK H   1      45.654  14.941 201.840  0.00  0.00    +0.000 C 
ATOM     18  O22 UNK H   1      44.828  12.971 202.841  0.00  0.00    +0.000 OA
ENDROOT
BRANCH   6  19
ATOM     19  O18 UNK H   1      46.902  20.618 196.160  0.00  0.00    +0.000 OA
ATOM     20  H9  UNK H   1      47.036  20.527 195.122  0.00  0.00    +0.000 HD
ENDBRANCH   6  19
BRANCH   5  21
ATOM     21  O19 UNK H   1      45.793  18.617 194.457  0.00  0.00    +0.000 OA
ATOM     22  H10 UNK H   1      46.076  19.606 194.250  0.00  0.00    +0.000 HD
ENDBRANCH   5  21
BRANCH   7  23
ATOM     23  O20 UNK H   1      43.207  15.298 197.400  0.00  0.00    +0.000 OA
ATOM     24  H11 UNK H   1      42.617  14.701 198.031  0.00  0.00    +0.000 HD
ENDBRANCH   7  23
BRANCH  17  25
ATOM     25  O21 UNK H   1      46.114  15.448 203.050  0.00  0.00    +0.000 OA
ATOM     26  H12 UNK H   1      46.030  14.712 203.793  0.00  0.00    +0.000 HD
ENDBRANCH  17  25
TORSDOF 4
REMARK  Name = Acarbose.pdb
REMARK  23 active torsions:
REMARK  status: ('A' for Active; 'I' for Inactive)
REMARK    1  A    between atoms: O1_1  and  C22_22
REMARK    2  A    between atoms: O1_1  and  C25_25
REMARK    3  A    between atoms: O4_4  and  C30_30
REMARK    4  A    between atoms: O4_4  and  C32_32
REMARK    5  A    between atoms: O5_5  and  C21_21
REMARK    6  A    between atoms: O6_6  and  C23_23
REMARK    7  A    between atoms: O7_7  and  C26_26
REMARK    8  A    between atoms: O9_9  and  C29_29
REMARK    9  A    between atoms: O10_10  and  C31_31
REMARK   10  A    between atoms: O11_11  and  C33_33
REMARK   11  A    between atoms: O12_12  and  C34_34
REMARK   12  A    between atoms: O13_13  and  C38_38
REMARK   13  A    between atoms: O14_14  and  C39_39
REMARK   14  A    between atoms: O15_15  and  C40_40
REMARK   15  A    between atoms: O16_16  and  C42_42
REMARK   16  A    between atoms: O17_17  and  C43_43
REMARK   17  A    between atoms: O18_18  and  C44_44
REMARK   18  A    between atoms: N19_19  and  C20_20
REMARK   19  A    between atoms: N19_19  and  C28_28
REMARK   20  A    between atoms: C24_24  and  C35_35
REMARK   21  A    between atoms: C27_27  and  C39_39
REMARK   22  A    between atoms: C36_36  and  C43_43
REMARK   23  A    between atoms: C41_41  and  C44_44
REMARK                            x       y       z     vdW  Elec       q    Type
REMARK                         _______ _______ _______ _____ _____    ______ ____
ROOT
ATOM      1  O1  UNK     0      40.144  15.388 200.819  0.00  0.00    +0.000 OA
ENDROOT
BRANCH   1   7
ATOM      2  O2  UNK     0      42.111  16.493 200.194  0.00  0.00    +0.000 OA
ATOM      3  C20 UNK     0      42.122  18.605 198.915  0.00  0.00    +0.000 C 
ATOM      4  C21 UNK     0      40.607  18.734 199.168  0.00  0.00    +0.000 C 
ATOM      5  C23 UNK     0      39.955  17.393 199.514  0.00  0.00    +0.000 C 
ATOM      6  C24 UNK     0      42.826  17.713 199.961  0.00  0.00    +0.000 C 
ATOM      7  C25 UNK     0      40.752  16.658 200.594  0.00  0.00    +0.000 C 
ATOM      8  C35 UNK     0      43.120  18.434 201.278  0.00  0.00    +0.000 C 
BRANCH   4   9
ATOM      9  O5  UNK     0      40.374  19.638 200.248  0.00  0.00    +0.000 OA
ATOM     10  H70 UNK     0      39.463  19.497 200.557  0.00  0.00    +0.000 HD
ENDBRANCH   4   9
BRANCH   5  11
ATOM     11  O6  UNK     0      39.891  16.570 198.350  0.00  0.00    +0.000 OA
ATOM     12  H72 UNK     0      40.686  16.751 197.820  0.00  0.00    +0.000 HD
ENDBRANCH   5  11
BRANCH   3  13
ATOM     13  N19 UNK     0      42.343  18.026 197.582  0.00  0.00    +0.000 NA
ATOM     14  H55 UNK     0      41.923  17.099 197.531  0.00  0.00    +0.000 HD
BRANCH  13  15
ATOM     15  C28 UNK     0      41.790  18.899 196.543  0.00  0.00    +0.000 C 
ATOM     16  C31 UNK     0      41.439  18.089 195.276  0.00  0.00    +0.000 C 
ATOM     17  C33 UNK     0      41.117  19.015 194.095  0.00  0.00    +0.000 C 
ATOM     18  C37 UNK     0      42.701  20.066 196.264  0.00  0.00    +0.000 C 
ATOM     19  C38 UNK     0      42.261  20.003 193.798  0.00  0.00    +0.000 C 
ATOM     20  C41 UNK     0      42.930  20.561 195.034  0.00  0.00    +0.000 C 
BRANCH  16  21
ATOM     21  O10 UNK     0      42.498  17.205 194.911  0.00  0.00    +0.000 OA
ATOM     22  H77 UNK     0      43.049  17.066 195.700  0.00  0.00    +0.000 HD
ENDBRANCH  16  21
BRANCH  17  23
ATOM     23  O11 UNK     0      39.938  19.765 194.383  0.00  0.00    +0.000 OA
ATOM     24  H80 UNK     0      39.243  19.469 193.770  0.00  0.00    +0.000 HD
ENDBRANCH  17  23
BRANCH  19  25
ATOM     25  O13 UNK     0      43.264  19.353 193.019  0.00  0.00    +0.000 OA
ATOM     26  H82 UNK     0      43.561  18.571 193.515  0.00  0.00    +0.000 HD
ENDBRANCH  19  25
BRANCH  20  27
ATOM     27  C44 UNK     0      43.857  21.723 194.821  0.00  0.00    +0.000 C 
BRANCH  27  28
ATOM     28  O18 UNK     0      44.971  21.308 194.054  0.00  0.00    +0.000 OA
ATOM     29  H87 UNK     0      45.188  20.400 194.329  0.00  0.00    +0.000 HD
ENDBRANCH  27  28
ENDBRANCH  20  27
ENDBRANCH  13  15
ENDBRANCH   3  13
ENDBRANCH   1   7
BRANCH   1  31
ATOM     30  O3  UNK     0      41.436  13.090 202.212  0.00  0.00    +0.000 OA
ATOM     31  C22 UNK     0      40.028  15.106 202.218  0.00  0.00    +0.000 C 
ATOM     32  C26 UNK     0      38.786  14.228 202.413  0.00  0.00    +0.000 C 
ATOM     33  C27 UNK     0      41.332  14.439 202.686  0.00  0.00    +0.000 C 
ATOM     34  C29 UNK     0      39.037  12.781 201.978  0.00  0.00    +0.000 C 
ATOM     35  C30 UNK     0      40.344  12.244 202.566  0.00  0.00    +0.000 C 
BRANCH  32  36
ATOM     36  O7  UNK     0      38.399  14.227 203.783  0.00  0.00    +0.000 OA
ATOM     37  H73 UNK     0      37.549  14.692 203.849  0.00  0.00    +0.000 HD
ENDBRANCH  32  36
BRANCH  34  38
ATOM     38  O9  UNK     0      39.089  12.714 200.553  0.00  0.00    +0.000 OA
ATOM     39  H74 UNK     0      38.464  12.026 200.269  0.00  0.00    +0.000 HD
ENDBRANCH  34  38
BRANCH  35  40
ATOM     40  O4  UNK     0      40.554  10.925 202.066  0.00  0.00    +0.000 OA
BRANCH  40  42
ATOM     41  O8  UNK     0      43.281   9.606 199.966  0.00  0.00    +0.000 OA
ATOM     42  C32 UNK     0      41.899  10.745 201.629  0.00  0.00    +0.000 C 
ATOM     43  C34 UNK     0      42.674  10.053 202.753  0.00  0.00    +0.000 C 
ATOM     44  C36 UNK     0      41.933   9.914 200.339  0.00  0.00    +0.000 C 
ATOM     45  C40 UNK     0      44.059   9.629 202.268  0.00  0.00    +0.000 C 
ATOM     46  C42 UNK     0      43.984   8.850 200.954  0.00  0.00    +0.000 C 
BRANCH  43  47
ATOM     47  O12 UNK     0      42.819  10.979 203.832  0.00  0.00    +0.000 OA
ATOM     48  H81 UNK     0      42.693  10.497 204.667  0.00  0.00    +0.000 HD
ENDBRANCH  43  47
BRANCH  45  49
ATOM     49  O15 UNK     0      44.689   8.842 203.273  0.00  0.00    +0.000 OA
ATOM     50  H84 UNK     0      44.642   7.912 202.989  0.00  0.00    +0.000 HD
ENDBRANCH  45  49
BRANCH  46  51
ATOM     51  O16 UNK     0      43.440   7.543 201.122  0.00  0.00    +0.000 OA
ATOM     52  H85 UNK     0      43.287   7.416 202.073  0.00  0.00    +0.000 HD
ENDBRANCH  46  51
BRANCH  44  53
ATOM     53  C43 UNK     0      41.302  10.655 199.163  0.00  0.00    +0.000 C 
BRANCH  53  54
ATOM     54  O17 UNK     0      41.482  12.045 199.358  0.00  0.00    +0.000 OA
ATOM     55  H86 UNK     0      42.317  12.161 199.843  0.00  0.00    +0.000 HD
ENDBRANCH  53  54
ENDBRANCH  44  53
ENDBRANCH  40  42
ENDBRANCH  35  40
BRANCH  33  56
ATOM     56  C39 UNK     0      41.552  14.513 204.196  0.00  0.00    +0.000 C 
BRANCH  56  57
ATOM     57  O14 UNK     0      42.776  13.872 204.505  0.00  0.00    +0.000 OA
ATOM     58  H83 UNK     0      43.376  14.553 204.855  0.00  0.00    +0.000 HD
ENDBRANCH  56  57
ENDBRANCH  33  56
ENDBRANCH   1  31
TORSDOF 22
ENDMDL
MODEL 6
REMARK VINA RESULT:    -2.886      3.674      8.582
REMARK INTER + INTRA:          -9.521
REMARK INTER:                  -6.564
REMARK INTRA:                  -2.957
REMARK UNBOUND:                -3.683
REMARK  Name = HEMCA.pdb
REMARK  4 active torsions:
REMARK  status: ('A' for Active; 'I' for Inactive)
REMARK    1  A    between atoms: C5_5  and  O19_19
REMARK    2  A    between atoms: C6_6  and  O18_18
REMARK    3  A    between atoms: C7_7  and  O20_20
REMARK    4  A    between atoms: C17_17  and  O21_21
REMARK                            x       y       z     vdW  Elec       q    Type
REMARK                         _______ _______ _______ _____ _____    ______ ____
ROOT
ATOM      1  C1  UNK H   1      43.214  15.882 198.370  0.00  0.00    +0.000 A 
ATOM      2  C2  UNK H   1      42.559  15.207 199.314  0.00  0.00    +0.000 A 
ATOM      3  C3  UNK H   1      43.969  17.100 198.727  0.00  0.00    +0.000 A 
ATOM      4  C4  UNK H   1      42.576  15.680 200.699  0.00  0.00    +0.000 A 
ATOM      5  C5  UNK H   1      43.970  17.531 199.986  0.00  0.00    +0.000 A 
ATOM      6  C6  UNK H   1      43.240  16.791 201.016  0.00  0.00    +0.000 A 
ATOM      7  C7  UNK H   1      43.781  16.445 195.972  0.00  0.00    +0.000 C 
ATOM      8  C8  UNK H   1      43.202  15.510 196.951  0.00  0.00    +0.000 C 
ATOM      9  C9  UNK H   1      44.999  17.203 196.497  0.00  0.00    +0.000 C 
ATOM     10  O10 UNK H   1      44.705  17.787 197.762  0.00  0.00    +0.000 OA
ATOM     11  C11 UNK H   1      43.948  15.620 194.655  0.00  0.00    +0.000 C 
ATOM     12  C12 UNK H   1      42.916  14.564 194.934  0.00  0.00    +0.000 C 
ATOM     13  C13 UNK H   1      42.623  14.486 196.323  0.00  0.00    +0.000 C 
ATOM     14  C14 UNK H   1      42.430  13.695 194.057  0.00  0.00    +0.000 C 
ATOM     15  C15 UNK H   1      41.533  12.642 194.560  0.00  0.00    +0.000 C 
ATOM     16  C16 UNK H   1      41.815  13.397 196.869  0.00  0.00    +0.000 C 
ATOM     17  C17 UNK H   1      41.284  12.516 196.018  0.00  0.00    +0.000 C 
ATOM     18  O22 UNK H   1      41.033  11.829 193.776  0.00  0.00    +0.000 OA
ENDROOT
BRANCH   6  19
ATOM     19  O18 UNK H   1      43.252  17.239 202.333  0.00  0.00    +0.000 OA
ATOM     20  H9  UNK H   1      43.128  18.282 202.349  0.00  0.00    +0.000 HD
ENDBRANCH   6  19
BRANCH   5  21
ATOM     21  O19 UNK H   1      44.686  18.672 200.327  0.00  0.00    +0.000 OA
ATOM     22  H10 UNK H   1      44.162  19.210 201.060  0.00  0.00    +0.000 HD
ENDBRANCH   5  21
BRANCH   7  23
ATOM     23  O20 UNK H   1      42.724  17.383 195.761  0.00  0.00    +0.000 OA
ATOM     24  H11 UNK H   1      43.026  18.098 195.054  0.00  0.00    +0.000 HD
ENDBRANCH   7  23
BRANCH  17  25
ATOM     25  O21 UNK H   1      40.497  11.477 196.500  0.00  0.00    +0.000 OA
ATOM     26  H12 UNK H   1      39.893  11.106 195.725  0.00  0.00    +0.000 HD
ENDBRANCH  17  25
TORSDOF 4
REMARK  Name = Acarbose.pdb
REMARK  23 active torsions:
REMARK  status: ('A' for Active; 'I' for Inactive)
REMARK    1  A    between atoms: O1_1  and  C22_22
REMARK    2  A    between atoms: O1_1  and  C25_25
REMARK    3  A    between atoms: O4_4  and  C30_30
REMARK    4  A    between atoms: O4_4  and  C32_32
REMARK    5  A    between atoms: O5_5  and  C21_21
REMARK    6  A    between atoms: O6_6  and  C23_23
REMARK    7  A    between atoms: O7_7  and  C26_26
REMARK    8  A    between atoms: O9_9  and  C29_29
REMARK    9  A    between atoms: O10_10  and  C31_31
REMARK   10  A    between atoms: O11_11  and  C33_33
REMARK   11  A    between atoms: O12_12  and  C34_34
REMARK   12  A    between atoms: O13_13  and  C38_38
REMARK   13  A    between atoms: O14_14  and  C39_39
REMARK   14  A    between atoms: O15_15  and  C40_40
REMARK   15  A    between atoms: O16_16  and  C42_42
REMARK   16  A    between atoms: O17_17  and  C43_43
REMARK   17  A    between atoms: O18_18  and  C44_44
REMARK   18  A    between atoms: N19_19  and  C20_20
REMARK   19  A    between atoms: N19_19  and  C28_28
REMARK   20  A    between atoms: C24_24  and  C35_35
REMARK   21  A    between atoms: C27_27  and  C39_39
REMARK   22  A    between atoms: C36_36  and  C43_43
REMARK   23  A    between atoms: C41_41  and  C44_44
REMARK                            x       y       z     vdW  Elec       q    Type
REMARK                         _______ _______ _______ _____ _____    ______ ____
ROOT
ATOM      1  O1  UNK     0      38.599  16.931 193.783  0.00  0.00    +0.000 OA
ENDROOT
BRANCH   1   7
ATOM      2  O2  UNK     0      39.651  16.389 195.803  0.00  0.00    +0.000 OA
ATOM      3  C20 UNK     0      39.559  17.837 197.801  0.00  0.00    +0.000 C 
ATOM      4  C21 UNK     0      38.455  18.665 197.116  0.00  0.00    +0.000 C 
ATOM      5  C23 UNK     0      38.457  18.499 195.594  0.00  0.00    +0.000 C 
ATOM      6  C24 UNK     0      39.664  16.403 197.236  0.00  0.00    +0.000 C 
ATOM      7  C25 UNK     0      38.521  17.021 195.204  0.00  0.00    +0.000 C 
ATOM      8  C35 UNK     0      38.612  15.447 197.801  0.00  0.00    +0.000 C 
BRANCH   4   9
ATOM      9  O5  UNK     0      37.176  18.266 197.608  0.00  0.00    +0.000 OA
ATOM     10  H70 UNK     0      36.919  18.897 198.303  0.00  0.00    +0.000 HD
ENDBRANCH   4   9
BRANCH   5  11
ATOM     11  O6  UNK     0      39.585  19.171 195.034  0.00  0.00    +0.000 OA
ATOM     12  H72 UNK     0      39.253  19.950 194.555  0.00  0.00    +0.000 HD
ENDBRANCH   5  11
BRANCH   3  13
ATOM     13  N19 UNK     0      40.853  18.507 197.617  0.00  0.00    +0.000 NA
ATOM     14  H55 UNK     0      41.069  18.583 196.625  0.00  0.00    +0.000 HD
BRANCH  13  15
ATOM     15  C28 UNK     0      40.840  19.833 198.243  0.00  0.00    +0.000 C 
ATOM     16  C31 UNK     0      41.868  20.768 197.569  0.00  0.00    +0.000 C 
ATOM     17  C33 UNK     0      42.059  22.059 198.377  0.00  0.00    +0.000 C 
ATOM     18  C37 UNK     0      41.019  19.737 199.736  0.00  0.00    +0.000 C 
ATOM     19  C38 UNK     0      42.466  21.780 199.837  0.00  0.00    +0.000 C 
ATOM     20  C41 UNK     0      41.757  20.598 200.460  0.00  0.00    +0.000 C 
BRANCH  16  21
ATOM     21  O10 UNK     0      43.129  20.122 197.401  0.00  0.00    +0.000 OA
ATOM     22  H77 UNK     0      43.031  19.203 197.702  0.00  0.00    +0.000 HD
ENDBRANCH  16  21
BRANCH  17  23
ATOM     23  O11 UNK     0      40.842  22.804 198.384  0.00  0.00    +0.000 OA
ATOM     24  H80 UNK     0      41.045  23.696 198.714  0.00  0.00    +0.000 HD
ENDBRANCH  17  23
BRANCH  19  25
ATOM     25  O13 UNK     0      43.869  21.528 199.903  0.00  0.00    +0.000 OA
ATOM     26  H82 UNK     0      43.988  20.579 200.081  0.00  0.00    +0.000 HD
ENDBRANCH  19  25
BRANCH  20  27
ATOM     27  C44 UNK     0      41.904  20.444 201.947  0.00  0.00    +0.000 C 
BRANCH  27  28
ATOM     28  O18 UNK     0      43.256  20.183 202.266  0.00  0.00    +0.000 OA
ATOM     29  H87 UNK     0      43.602  20.971 202.721  0.00  0.00    +0.000 HD
ENDBRANCH  27  28
ENDBRANCH  20  27
ENDBRANCH  13  15
ENDBRANCH   3  13
ENDBRANCH   1   7
BRANCH   1  31
ATOM     30  O3  UNK     0      39.453  14.508 192.269  0.00  0.00    +0.000 OA
ATOM     31  C22 UNK     0      37.715  15.926 193.275  0.00  0.00    +0.000 C 
ATOM     32  C26 UNK     0      37.272  16.364 191.873  0.00  0.00    +0.000 C 
ATOM     33  C27 UNK     0      38.453  14.577 193.293  0.00  0.00    +0.000 C 
ATOM     34  C29 UNK     0      38.374  16.146 190.834  0.00  0.00    +0.000 C 
ATOM     35  C30 UNK     0      38.974  14.743 190.947  0.00  0.00    +0.000 C 
BRANCH  32  36
ATOM     36  O7  UNK     0      36.122  15.626 191.473  0.00  0.00    +0.000 OA
ATOM     37  H73 UNK     0      35.964  15.816 190.533  0.00  0.00    +0.000 HD
ENDBRANCH  32  36
BRANCH  34  38
ATOM     38  O9  UNK     0      39.401  17.122 191.017  0.00  0.00    +0.000 OA
ATOM     39  H74 UNK     0      39.071  17.965 190.662  0.00  0.00    +0.000 HD
ENDBRANCH  34  38
BRANCH  35  40
ATOM     40  O4  UNK     0      40.039  14.631 190.005  0.00  0.00    +0.000 OA
BRANCH  40  42
ATOM     41  O8  UNK     0      43.633  14.036 190.566  0.00  0.00    +0.000 OA
ATOM     42  C32 UNK     0      41.190  14.028 190.592  0.00  0.00    +0.000 C 
ATOM     43  C34 UNK     0      41.186  12.542 190.225  0.00  0.00    +0.000 C 
ATOM     44  C36 UNK     0      42.466  14.719 190.095  0.00  0.00    +0.000 C 
ATOM     45  C40 UNK     0      42.503  11.885 190.633  0.00  0.00    +0.000 C 
ATOM     46  C42 UNK     0      43.710  12.677 190.128  0.00  0.00    +0.000 C 
BRANCH  43  47
ATOM     47  O12 UNK     0      40.111  11.911 190.926  0.00  0.00    +0.000 OA
ATOM     48  H81 UNK     0      40.394  11.014 191.171  0.00  0.00    +0.000 HD
ENDBRANCH  43  47
BRANCH  45  49
ATOM     49  O15 UNK     0      42.541  10.554 190.129  0.00  0.00    +0.000 OA
ATOM     50  H84 UNK     0      43.474  10.329 189.967  0.00  0.00    +0.000 HD
ENDBRANCH  45  49
BRANCH  46  51
ATOM     51  O16 UNK     0      43.882  12.574 188.716  0.00  0.00    +0.000 OA
ATOM     52  H85 UNK     0      44.368  13.365 188.428  0.00  0.00    +0.000 HD
ENDBRANCH  46  51
BRANCH  44  53
ATOM     53  C43 UNK     0      42.565  16.161 190.584  0.00  0.00    +0.000 C 
BRANCH  53  54
ATOM     54  O17 UNK     0      41.896  16.262 191.827  0.00  0.00    +0.000 OA
ATOM     55  H86 UNK     0      40.946  16.155 191.651  0.00  0.00    +0.000 HD
ENDBRANCH  53  54
ENDBRANCH  44  53
ENDBRANCH  40  42
ENDBRANCH  35  40
BRANCH  33  56
ATOM     56  C39 UNK     0      37.523  13.367 193.241  0.00  0.00    +0.000 C 
BRANCH  56  57
ATOM     57  O14 UNK     0      38.310  12.191 193.297  0.00  0.00    +0.000 OA
ATOM     58  H83 UNK     0      37.789  11.520 193.769  0.00  0.00    +0.000 HD
ENDBRANCH  56  57
ENDBRANCH  33  56
ENDBRANCH   1  31
TORSDOF 22
ENDMDL
MODEL 7
REMARK VINA RESULT:    -2.886      4.339      8.885
REMARK INTER + INTRA:          -9.521
REMARK INTER:                  -6.583
REMARK INTRA:                  -2.938
REMARK UNBOUND:                -3.683
REMARK  Name = HEMCA.pdb
REMARK  4 active torsions:
REMARK  status: ('A' for Active; 'I' for Inactive)
REMARK    1  A    between atoms: C5_5  and  O19_19
REMARK    2  A    between atoms: C6_6  and  O18_18
REMARK    3  A    between atoms: C7_7  and  O20_20
REMARK    4  A    between atoms: C17_17  and  O21_21
REMARK                            x       y       z     vdW  Elec       q    Type
REMARK                         _______ _______ _______ _____ _____    ______ ____
ROOT
ATOM      1  C1  UNK H   1      39.582  12.424 192.738  0.00  0.00    +0.000 A 
ATOM      2  C2  UNK H   1      38.793  12.053 193.746  0.00  0.00    +0.000 A 
ATOM      3  C3  UNK H   1      40.601  11.490 192.221  0.00  0.00    +0.000 A 
ATOM      4  C4  UNK H   1      38.945  10.727 194.347  0.00  0.00    +0.000 A 
ATOM      5  C5  UNK H   1      40.743  10.290 192.780  0.00  0.00    +0.000 A 
ATOM      6  C6  UNK H   1      39.879   9.893 193.893  0.00  0.00    +0.000 A 
ATOM      7  C7  UNK H   1      40.591  14.123 191.162  0.00  0.00    +0.000 C 
ATOM      8  C8  UNK H   1      39.534  13.752 192.118  0.00  0.00    +0.000 C 
ATOM      9  C9  UNK H   1      41.078  12.955 190.305  0.00  0.00    +0.000 C 
ATOM     10  O10 UNK H   1      41.399  11.841 191.131  0.00  0.00    +0.000 OA
ATOM     11  C11 UNK H   1      40.062  15.396 190.428  0.00  0.00    +0.000 C 
ATOM     12  C12 UNK H   1      39.091  15.858 191.476  0.00  0.00    +0.000 C 
ATOM     13  C13 UNK H   1      38.743  14.799 192.357  0.00  0.00    +0.000 C 
ATOM     14  C14 UNK H   1      38.495  17.043 191.521  0.00  0.00    +0.000 C 
ATOM     15  C15 UNK H   1      37.462  17.251 192.548  0.00  0.00    +0.000 C 
ATOM     16  C16 UNK H   1      37.656  14.941 193.324  0.00  0.00    +0.000 C 
ATOM     17  C17 UNK H   1      37.047  16.124 193.421  0.00  0.00    +0.000 C 
ATOM     18  O22 UNK H   1      36.901  18.348 192.647  0.00  0.00    +0.000 OA
ENDROOT
BRANCH   6  19
ATOM     19  O18 UNK H   1      40.024   8.634 194.468  0.00  0.00    +0.000 OA
ATOM     20  H9  UNK H   1      41.006   8.293 194.322  0.00  0.00    +0.000 HD
ENDBRANCH   6  19
BRANCH   5  21
ATOM     21  O19 UNK H   1      41.696   9.405 192.290  0.00  0.00    +0.000 OA
ATOM     22  H10 UNK H   1      42.563   9.461 192.880  0.00  0.00    +0.000 HD
ENDBRANCH   5  21
BRANCH   7  23
ATOM     23  O20 UNK H   1      41.663  14.532 192.014  0.00  0.00    +0.000 OA
ATOM     24  H11 UNK H   1      42.511  14.747 191.433  0.00  0.00    +0.000 HD
ENDBRANCH   7  23
BRANCH  17  25
ATOM     25  O21 UNK H   1      36.020  16.301 194.341  0.00  0.00    +0.000 OA
ATOM     26  H12 UNK H   1      36.009  15.493 195.013  0.00  0.00    +0.000 HD
ENDBRANCH  17  25
TORSDOF 4
REMARK  Name = Acarbose.pdb
REMARK  23 active torsions:
REMARK  status: ('A' for Active; 'I' for Inactive)
REMARK    1  A    between atoms: O1_1  and  C22_22
REMARK    2  A    between atoms: O1_1  and  C25_25
REMARK    3  A    between atoms: O4_4  and  C30_30
REMARK    4  A    between atoms: O4_4  and  C32_32
REMARK    5  A    between atoms: O5_5  and  C21_21
REMARK    6  A    between atoms: O6_6  and  C23_23
REMARK    7  A    between atoms: O7_7  and  C26_26
REMARK    8  A    between atoms: O9_9  and  C29_29
REMARK    9  A    between atoms: O10_10  and  C31_31
REMARK   10  A    between atoms: O11_11  and  C33_33
REMARK   11  A    between atoms: O12_12  and  C34_34
REMARK   12  A    between atoms: O13_13  and  C38_38
REMARK   13  A    between atoms: O14_14  and  C39_39
REMARK   14  A    between atoms: O15_15  and  C40_40
REMARK   15  A    between atoms: O16_16  and  C42_42
REMARK   16  A    between atoms: O17_17  and  C43_43
REMARK   17  A    between atoms: O18_18  and  C44_44
REMARK   18  A    between atoms: N19_19  and  C20_20
REMARK   19  A    between atoms: N19_19  and  C28_28
REMARK   20  A    between atoms: C24_24  and  C35_35
REMARK   21  A    between atoms: C27_27  and  C39_39
REMARK   22  A    between atoms: C36_36  and  C43_43
REMARK   23  A    between atoms: C41_41  and  C44_44
REMARK                            x       y       z     vdW  Elec       q    Type
REMARK                         _______ _______ _______ _____ _____    ______ ____
ROOT
ATOM      1  O1  UNK     0      42.142  18.195 194.798  0.00  0.00    +0.000 OA
ENDROOT
BRANCH   1   7
ATOM      2  O2  UNK     0      41.032  16.133 194.759  0.00  0.00    +0.000 OA
ATOM      3  C20 UNK     0      41.973  14.079 195.754  0.00  0.00    +0.000 C 
ATOM      4  C21 UNK     0      43.052  14.938 196.441  0.00  0.00    +0.000 C 
ATOM      5  C23 UNK     0      43.248  16.292 195.754  0.00  0.00    +0.000 C 
ATOM      6  C24 UNK     0      40.709  14.888 195.391  0.00  0.00    +0.000 C 
ATOM      7  C25 UNK     0      41.903  16.980 195.506  0.00  0.00    +0.000 C 
ATOM      8  C35 UNK     0      39.764  15.106 196.575  0.00  0.00    +0.000 C 
BRANCH   4   9
ATOM      9  O5  UNK     0      42.687  15.174 197.800  0.00  0.00    +0.000 OA
ATOM     10  H70 UNK     0      41.900  14.634 197.991  0.00  0.00    +0.000 HD
ENDBRANCH   4   9
BRANCH   5  11
ATOM     11  O6  UNK     0      43.908  16.110 194.501  0.00  0.00    +0.000 OA
ATOM     12  H72 UNK     0      44.150  15.170 194.433  0.00  0.00    +0.000 HD
ENDBRANCH   5  11
BRANCH   3  13
ATOM     13  N19 UNK     0      42.526  13.500 194.521  0.00  0.00    +0.000 NA
ATOM     14  H55 UNK     0      42.800  14.243 193.880  0.00  0.00    +0.000 HD
BRANCH  13  15
ATOM     15  C28 UNK     0      43.671  12.637 194.827  0.00  0.00    +0.000 C 
ATOM     16  C31 UNK     0      44.623  12.539 193.615  0.00  0.00    +0.000 C 
ATOM     17  C33 UNK     0      45.672  11.438 193.818  0.00  0.00    +0.000 C 
ATOM     18  C37 UNK     0      43.223  11.291 195.335  0.00  0.00    +0.000 C 
ATOM     19  C38 UNK     0      45.032  10.066 194.107  0.00  0.00    +0.000 C 
ATOM     20  C41 UNK     0      43.819  10.129 195.009  0.00  0.00    +0.000 C 
BRANCH  16  21
ATOM     21  O10 UNK     0      43.905  12.293 192.405  0.00  0.00    +0.000 OA
ATOM     22  H77 UNK     0      44.451  12.617 191.670  0.00  0.00    +0.000 HD
ENDBRANCH  16  21
BRANCH  17  23
ATOM     23  O11 UNK     0      46.517  11.779 194.916  0.00  0.00    +0.000 OA
ATOM     24  H80 UNK     0      46.319  12.697 195.167  0.00  0.00    +0.000 HD
ENDBRANCH  17  23
BRANCH  19  25
ATOM     25  O13 UNK     0      44.628   9.459 192.880  0.00  0.00    +0.000 OA
ATOM     26  H82 UNK     0      43.752   9.061 193.024  0.00  0.00    +0.000 HD
ENDBRANCH  19  25
BRANCH  20  27
ATOM     27  C44 UNK     0      43.319   8.818 195.543  0.00  0.00    +0.000 C 
BRANCH  27  28
ATOM     28  O18 UNK     0      42.888   8.001 194.472  0.00  0.00    +0.000 OA
ATOM     29  H87 UNK     0      42.537   8.591 193.783  0.00  0.00    +0.000 HD
ENDBRANCH  27  28
ENDBRANCH  20  27
ENDBRANCH  13  15
ENDBRANCH   3  13
ENDBRANCH   1   7
BRANCH   1  31
ATOM     30  O3  UNK     0      40.020  19.700 193.338  0.00  0.00    +0.000 OA
ATOM     31  C22 UNK     0      41.378  19.276 195.344  0.00  0.00    +0.000 C 
ATOM     32  C26 UNK     0      42.154  20.572 195.083  0.00  0.00    +0.000 C 
ATOM     33  C27 UNK     0      39.981  19.255 194.701  0.00  0.00    +0.000 C 
ATOM     34  C29 UNK     0      42.041  21.019 193.623  0.00  0.00    +0.000 C 
ATOM     35  C30 UNK     0      40.587  20.994 193.146  0.00  0.00    +0.000 C 
BRANCH  32  36
ATOM     36  O7  UNK     0      41.657  21.615 195.914  0.00  0.00    +0.000 OA
ATOM     37  H73 UNK     0      42.301  22.342 195.891  0.00  0.00    +0.000 HD
ENDBRANCH  32  36
BRANCH  34  38
ATOM     38  O9  UNK     0      42.831  20.160 192.799  0.00  0.00    +0.000 OA
ATOM     39  H74 UNK     0      43.521  19.769 193.360  0.00  0.00    +0.000 HD
ENDBRANCH  34  38
BRANCH  35  40
ATOM     40  O4  UNK     0      40.560  21.348 191.765  0.00  0.00    +0.000 OA
BRANCH  40  42
ATOM     41  O8  UNK     0      39.433  19.404 188.844  0.00  0.00    +0.000 OA
ATOM     42  C32 UNK     0      39.713  20.475 191.022  0.00  0.00    +0.000 C 
ATOM     43  C34 UNK     0      38.350  21.154 190.869  0.00  0.00    +0.000 C 
ATOM     44  C36 UNK     0      40.335  20.165 189.654  0.00  0.00    +0.000 C 
ATOM     45  C40 UNK     0      37.468  20.374 189.895  0.00  0.00    +0.000 C 
ATOM     46  C42 UNK     0      38.198  20.076 188.585  0.00  0.00    +0.000 C 
BRANCH  43  47
ATOM     47  O12 UNK     0      37.718  21.184 192.151  0.00  0.00    +0.000 OA
ATOM     48  H81 UNK     0      38.197  20.577 192.740  0.00  0.00    +0.000 HD
ENDBRANCH  43  47
BRANCH  45  49
ATOM     49  O15 UNK     0      36.279  21.114 189.640  0.00  0.00    +0.000 OA
ATOM     50  H84 UNK     0      35.559  20.693 190.142  0.00  0.00    +0.000 HD
ENDBRANCH  45  49
BRANCH  46  51
ATOM     51  O16 UNK     0      38.376  21.240 187.780  0.00  0.00    +0.000 OA
ATOM     52  H85 UNK     0      38.620  21.967 188.377  0.00  0.00    +0.000 HD
ENDBRANCH  46  51
BRANCH  44  53
ATOM     53  C43 UNK     0      41.619  19.349 189.780  0.00  0.00    +0.000 C 
BRANCH  53  54
ATOM     54  O17 UNK     0      41.543  18.570 190.959  0.00  0.00    +0.000 OA
ATOM     55  H86 UNK     0      42.107  17.789 190.824  0.00  0.00    +0.000 HD
ENDBRANCH  53  54
ENDBRANCH  44  53
ENDBRANCH  40  42
ENDBRANCH  35  40
BRANCH  33  56
ATOM     56  C39 UNK     0      38.925  20.016 195.501  0.00  0.00    +0.000 C 
BRANCH  56  57
ATOM     57  O14 UNK     0      37.670  19.845 194.867  0.00  0.00    +0.000 OA
ATOM     58  H83 UNK     0      37.036  20.420 195.326  0.00  0.00    +0.000 HD
ENDBRANCH  56  57
ENDBRANCH  33  56
ENDBRANCH   1  31
TORSDOF 22
ENDMDL
MODEL 8
REMARK VINA RESULT:    -2.885      2.618      5.342
REMARK INTER + INTRA:          -9.519
REMARK INTER:                  -5.934
REMARK INTRA:                  -3.585
REMARK UNBOUND:                -3.683
REMARK  Name = HEMCA.pdb
REMARK  4 active torsions:
REMARK  status: ('A' for Active; 'I' for Inactive)
REMARK    1  A    between atoms: C5_5  and  O19_19
REMARK    2  A    between atoms: C6_6  and  O18_18
REMARK    3  A    between atoms: C7_7  and  O20_20
REMARK    4  A    between atoms: C17_17  and  O21_21
REMARK                            x       y       z     vdW  Elec       q    Type
REMARK                         _______ _______ _______ _____ _____    ______ ____
ROOT
ATOM      1  C1  UNK H   1      39.636  15.403 200.288  0.00  0.00    +0.000 A 
ATOM      2  C2  UNK H   1      38.746  14.414 200.215  0.00  0.00    +0.000 A 
ATOM      3  C3  UNK H   1      39.311  16.630 201.043  0.00  0.00    +0.000 A 
ATOM      4  C4  UNK H   1      37.444  14.549 200.870  0.00  0.00    +0.000 A 
ATOM      5  C5  UNK H   1      38.120  16.751 201.625  0.00  0.00    +0.000 A 
ATOM      6  C6  UNK H   1      37.143  15.665 201.532  0.00  0.00    +0.000 A 
ATOM      7  C7  UNK H   1      41.748  16.602 199.589  0.00  0.00    +0.000 C 
ATOM      8  C8  UNK H   1      40.939  15.372 199.615  0.00  0.00    +0.000 C 
ATOM      9  C9  UNK H   1      41.623  17.444 200.858  0.00  0.00    +0.000 C 
ATOM     10  O10 UNK H   1      40.251  17.652 201.175  0.00  0.00    +0.000 OA
ATOM     11  C11 UNK H   1      43.178  16.152 199.150  0.00  0.00    +0.000 C 
ATOM     12  C12 UNK H   1      42.795  14.879 198.451  0.00  0.00    +0.000 C 
ATOM     13  C13 UNK H   1      41.515  14.427 198.871  0.00  0.00    +0.000 C 
ATOM     14  C14 UNK H   1      43.577  14.157 197.657  0.00  0.00    +0.000 C 
ATOM     15  C15 UNK H   1      43.063  12.861 197.185  0.00  0.00    +0.000 C 
ATOM     16  C16 UNK H   1      41.016  13.105 198.499  0.00  0.00    +0.000 C 
ATOM     17  C17 UNK H   1      41.758  12.356 197.680  0.00  0.00    +0.000 C 
ATOM     18  O22 UNK H   1      43.743  12.169 196.421  0.00  0.00    +0.000 OA
ENDROOT
BRANCH   6  19
ATOM     19  O18 UNK H   1      35.904  15.792 202.151  0.00  0.00    +0.000 OA
ATOM     20  H9  UNK H   1      35.685  14.911 202.680  0.00  0.00    +0.000 HD
ENDBRANCH   6  19
BRANCH   5  21
ATOM     21  O19 UNK H   1      37.814  17.902 202.342  0.00  0.00    +0.000 OA
ATOM     22  H10 UNK H   1      37.855  18.735 201.704  0.00  0.00    +0.000 HD
ENDBRANCH   5  21
BRANCH   7  23
ATOM     23  O20 UNK H   1      41.177  17.337 198.504  0.00  0.00    +0.000 OA
ATOM     24  H11 UNK H   1      41.677  17.094 197.614  0.00  0.00    +0.000 HD
ENDBRANCH   7  23
BRANCH  17  25
ATOM     25  O21 UNK H   1      41.307  11.100 197.291  0.00  0.00    +0.000 OA
ATOM     26  H12 UNK H   1      41.301  11.039 196.243  0.00  0.00    +0.000 HD
ENDBRANCH  17  25
TORSDOF 4
REMARK  Name = Acarbose.pdb
REMARK  23 active torsions:
REMARK  status: ('A' for Active; 'I' for Inactive)
REMARK    1  A    between atoms: O1_1  and  C22_22
REMARK    2  A    between atoms: O1_1  and  C25_25
REMARK    3  A    between atoms: O4_4  and  C30_30
REMARK    4  A    between atoms: O4_4  and  C32_32
REMARK    5  A    between atoms: O5_5  and  C21_21
REMARK    6  A    between atoms: O6_6  and  C23_23
REMARK    7  A    between atoms: O7_7  and  C26_26
REMARK    8  A    between atoms: O9_9  and  C29_29
REMARK    9  A    between atoms: O10_10  and  C31_31
REMARK   10  A    between atoms: O11_11  and  C33_33
REMARK   11  A    between atoms: O12_12  and  C34_34
REMARK   12  A    between atoms: O13_13  and  C38_38
REMARK   13  A    between atoms: O14_14  and  C39_39
REMARK   14  A    between atoms: O15_15  and  C40_40
REMARK   15  A    between atoms: O16_16  and  C42_42
REMARK   16  A    between atoms: O17_17  and  C43_43
REMARK   17  A    between atoms: O18_18  and  C44_44
REMARK   18  A    between atoms: N19_19  and  C20_20
REMARK   19  A    between atoms: N19_19  and  C28_28
REMARK   20  A    between atoms: C24_24  and  C35_35
REMARK   21  A    between atoms: C27_27  and  C39_39
REMARK   22  A    between atoms: C36_36  and  C43_43
REMARK   23  A    between atoms: C41_41  and  C44_44
REMARK                            x       y       z     vdW  Elec       q    Type
REMARK                         _______ _______ _______ _____ _____    ______ ____
ROOT
ATOM      1  O1  UNK     0      36.958  19.250 196.458  0.00  0.00    +0.000 OA
ENDROOT
BRANCH   1   7
ATOM      2  O2  UNK     0      36.781  17.160 195.419  0.00  0.00    +0.000 OA
ATOM      3  C20 UNK     0      36.428  15.060 196.668  0.00  0.00    +0.000 C 
ATOM      4  C21 UNK     0      36.117  15.893 197.927  0.00  0.00    +0.000 C 
ATOM      5  C23 UNK     0      36.688  17.312 197.846  0.00  0.00    +0.000 C 
ATOM      6  C24 UNK     0      36.202  15.850 195.361  0.00  0.00    +0.000 C 
ATOM      7  C25 UNK     0      36.338  17.967 196.508  0.00  0.00    +0.000 C 
ATOM      8  C35 UNK     0      34.733  15.921 194.938  0.00  0.00    +0.000 C 
BRANCH   4   9
ATOM      9  O5  UNK     0      34.705  15.988 198.106  0.00  0.00    +0.000 OA
ATOM     10  H70 UNK     0      34.546  16.493 198.922  0.00  0.00    +0.000 HD
ENDBRANCH   4   9
BRANCH   5  11
ATOM     11  O6  UNK     0      38.108  17.272 197.981  0.00  0.00    +0.000 OA
ATOM     12  H72 UNK     0      38.445  16.632 197.330  0.00  0.00    +0.000 HD
ENDBRANCH   5  11
BRANCH   3  13
ATOM     13  N19 UNK     0      37.829  14.620 196.712  0.00  0.00    +0.000 NA
ATOM     14  H55 UNK     0      37.881  13.655 197.035  0.00  0.00    +0.000 HD
BRANCH  13  15
ATOM     15  C28 UNK     0      38.453  14.755 195.392  0.00  0.00    +0.000 C 
ATOM     16  C31 UNK     0      38.554  13.383 194.690  0.00  0.00    +0.000 C 
ATOM     17  C33 UNK     0      39.439  13.463 193.439  0.00  0.00    +0.000 C 
ATOM     18  C37 UNK     0      39.775  15.472 195.481  0.00  0.00    +0.000 C 
ATOM     19  C38 UNK     0      40.845  14.008 193.751  0.00  0.00    +0.000 C 
ATOM     20  C41 UNK     0      40.860  15.137 194.758  0.00  0.00    +0.000 C 
BRANCH  16  21
ATOM     21  O10 UNK     0      39.065  12.383 195.571  0.00  0.00    +0.000 OA
ATOM     22  H77 UNK     0      38.430  12.281 196.299  0.00  0.00    +0.000 HD
ENDBRANCH  16  21
BRANCH  17  23
ATOM     23  O11 UNK     0      38.828  14.319 192.474  0.00  0.00    +0.000 OA
ATOM     24  H80 UNK     0      39.332  14.236 191.646  0.00  0.00    +0.000 HD
ENDBRANCH  17  23
BRANCH  19  25
ATOM     25  O13 UNK     0      41.663  12.958 194.266  0.00  0.00    +0.000 OA
ATOM     26  H82 UNK     0      42.445  12.886 193.692  0.00  0.00    +0.000 HD
ENDBRANCH  19  25
BRANCH  20  27
ATOM     27  C44 UNK     0      42.154  15.886 194.898  0.00  0.00    +0.000 C 
BRANCH  27  28
ATOM     28  O18 UNK     0      41.948  17.047 195.679  0.00  0.00    +0.000 OA
ATOM     29  H87 UNK     0      42.776  17.558 195.660  0.00  0.00    +0.000 HD
ENDBRANCH  27  28
ENDBRANCH  20  27
ENDBRANCH  13  15
ENDBRANCH   3  13
ENDBRANCH   1   7
BRANCH   1  31
ATOM     30  O3  UNK     0      39.873  19.499 195.883  0.00  0.00    +0.000 OA
ATOM     31  C22 UNK     0      37.521  19.508 195.168  0.00  0.00    +0.000 C 
ATOM     32  C26 UNK     0      37.590  21.029 194.986  0.00  0.00    +0.000 C 
ATOM     33  C27 UNK     0      38.893  18.816 195.091  0.00  0.00    +0.000 C 
ATOM     34  C29 UNK     0      38.740  21.646 195.788  0.00  0.00    +0.000 C 
ATOM     35  C30 UNK     0      40.045  20.879 195.567  0.00  0.00    +0.000 C 
BRANCH  32  36
ATOM     36  O7  UNK     0      37.776  21.349 193.611  0.00  0.00    +0.000 OA
ATOM     37  H73 UNK     0      37.922  22.308 193.550  0.00  0.00    +0.000 HD
ENDBRANCH  32  36
BRANCH  34  38
ATOM     38  O9  UNK     0      38.409  21.640 197.177  0.00  0.00    +0.000 OA
ATOM     39  H74 UNK     0      38.230  22.559 197.440  0.00  0.00    +0.000 HD
ENDBRANCH  34  38
BRANCH  35  40
ATOM     40  O4  UNK     0      41.053  21.457 196.394  0.00  0.00    +0.000 OA
BRANCH  40  42
ATOM     41  O8  UNK     0      42.924  19.893 199.158  0.00  0.00    +0.000 OA
ATOM     42  C32 UNK     0      41.826  20.453 197.048  0.00  0.00    +0.000 C 
ATOM     43  C34 UNK     0      43.163  20.331 196.314  0.00  0.00    +0.000 C 
ATOM     44  C36 UNK     0      42.035  20.819 198.524  0.00  0.00    +0.000 C 
ATOM     45  C40 UNK     0      44.124  19.435 197.094  0.00  0.00    +0.000 C 
ATOM     46  C42 UNK     0      44.222  19.855 198.562  0.00  0.00    +0.000 C 
BRANCH  43  47
ATOM     47  O12 UNK     0      42.917  19.748 195.032  0.00  0.00    +0.000 OA
ATOM     48  H81 UNK     0      43.762  19.421 194.679  0.00  0.00    +0.000 HD
ENDBRANCH  43  47
BRANCH  45  49
ATOM     49  O15 UNK     0      45.408  19.476 196.482  0.00  0.00    +0.000 OA
ATOM     50  H84 UNK     0      46.072  19.416 197.190  0.00  0.00    +0.000 HD
ENDBRANCH  45  49
BRANCH  46  51
ATOM     51  O16 UNK     0      44.932  21.081 198.734  0.00  0.00    +0.000 OA
ATOM     52  H85 UNK     0      45.866  20.854 198.876  0.00  0.00    +0.000 HD
ENDBRANCH  46  51
BRANCH  44  53
ATOM     53  C43 UNK     0      40.727  20.793 199.312  0.00  0.00    +0.000 C 
BRANCH  53  54
ATOM     54  O17 UNK     0      39.921  19.743 198.811  0.00  0.00    +0.000 OA
ATOM     55  H86 UNK     0      39.331  20.129 198.141  0.00  0.00    +0.000 HD
ENDBRANCH  53  54
ENDBRANCH  44  53
ENDBRANCH  40  42
ENDBRANCH  35  40
BRANCH  33  56
ATOM     56  C39 UNK     0      39.391  18.595 193.664  0.00  0.00    +0.000 C 
BRANCH  56  57
ATOM     57  O14 UNK     0      38.504  17.706 193.011  0.00  0.00    +0.000 OA
ATOM     58  H83 UNK     0      38.675  17.780 192.057  0.00  0.00    +0.000 HD
ENDBRANCH  56  57
ENDBRANCH  33  56
ENDBRANCH   1  31
TORSDOF 22
ENDMDL
MODEL 9
REMARK VINA RESULT:    -2.884      3.210      7.273
REMARK INTER + INTRA:          -9.518
REMARK INTER:                  -6.560
REMARK INTRA:                  -2.958
REMARK UNBOUND:                -3.683
REMARK  Name = HEMCA.pdb
REMARK  4 active torsions:
REMARK  status: ('A' for Active; 'I' for Inactive)
REMARK    1  A    between atoms: C5_5  and  O19_19
REMARK    2  A    between atoms: C6_6  and  O18_18
REMARK    3  A    between atoms: C7_7  and  O20_20
REMARK    4  A    between atoms: C17_17  and  O21_21
REMARK                            x       y       z     vdW  Elec       q    Type
REMARK                         _______ _______ _______ _____ _____    ______ ____
ROOT
ATOM      1  C1  UNK H   1      37.744  13.273 197.855  0.00  0.00    +0.000 A 
ATOM      2  C2  UNK H   1      36.602  13.907 198.120  0.00  0.00    +0.000 A 
ATOM      3  C3  UNK H   1      38.239  12.234 198.780  0.00  0.00    +0.000 A 
ATOM      4  C4  UNK H   1      35.849  13.586 199.333  0.00  0.00    +0.000 A 
ATOM      5  C5  UNK H   1      37.556  11.956 199.888  0.00  0.00    +0.000 A 
ATOM      6  C6  UNK H   1      36.308  12.664 200.178  0.00  0.00    +0.000 A 
ATOM      7  C7  UNK H   1      39.925  12.963 196.617  0.00  0.00    +0.000 C 
ATOM      8  C8  UNK H   1      38.587  13.574 196.694  0.00  0.00    +0.000 C 
ATOM      9  C9  UNK H   1      39.986  11.548 197.192  0.00  0.00    +0.000 C 
ATOM     10  O10 UNK H   1      39.403  11.522 198.491  0.00  0.00    +0.000 OA
ATOM     11  C11 UNK H   1      40.395  13.171 195.141  0.00  0.00    +0.000 C 
ATOM     12  C12 UNK H   1      39.525  14.348 194.805  0.00  0.00    +0.000 C 
ATOM     13  C13 UNK H   1      38.420  14.441 195.695  0.00  0.00    +0.000 C 
ATOM     14  C14 UNK H   1      39.646  15.131 193.740  0.00  0.00    +0.000 C 
ATOM     15  C15 UNK H   1      38.603  16.143 193.513  0.00  0.00    +0.000 C 
ATOM     16  C16 UNK H   1      37.319  15.369 195.445  0.00  0.00    +0.000 C 
ATOM     17  C17 UNK H   1      37.413  16.194 194.400  0.00  0.00    +0.000 C 
ATOM     18  O22 UNK H   1      38.689  16.914 192.551  0.00  0.00    +0.000 OA
ENDROOT
BRANCH   6  19
ATOM     19  O18 UNK H   1      35.591  12.362 201.332  0.00  0.00    +0.000 OA
ATOM     20  H9  UNK H   1      34.562  12.441 201.135  0.00  0.00    +0.000 HD
ENDBRANCH   6  19
BRANCH   5  21
ATOM     21  O19 UNK H   1      38.015  10.973 200.757  0.00  0.00    +0.000 OA
ATOM     22  H10 UNK H   1      37.218  10.348 201.032  0.00  0.00    +0.000 HD
ENDBRANCH   5  21
BRANCH   7  23
ATOM     23  O20 UNK H   1      40.716  13.818 197.445  0.00  0.00    +0.000 OA
ATOM     24  H11 UNK H   1      41.726  13.732 197.173  0.00  0.00    +0.000 HD
ENDBRANCH   7  23
BRANCH  17  25
ATOM     25  O21 UNK H   1      36.393  17.102 194.141  0.00  0.00    +0.000 OA
ATOM     26  H12 UNK H   1      36.783  17.931 193.629  0.00  0.00    +0.000 HD
ENDBRANCH  17  25
TORSDOF 4
REMARK  Name = Acarbose.pdb
REMARK  23 active torsions:
REMARK  status: ('A' for Active; 'I' for Inactive)
REMARK    1  A    between atoms: O1_1  and  C22_22
REMARK    2  A    between atoms: O1_1  and  C25_25
REMARK    3  A    between atoms: O4_4  and  C30_30
REMARK    4  A    between atoms: O4_4  and  C32_32
REMARK    5  A    between atoms: O5_5  and  C21_21
REMARK    6  A    between atoms: O6_6  and  C23_23
REMARK    7  A    between atoms: O7_7  and  C26_26
REMARK    8  A    between atoms: O9_9  and  C29_29
REMARK    9  A    between atoms: O10_10  and  C31_31
REMARK   10  A    between atoms: O11_11  and  C33_33
REMARK   11  A    between atoms: O12_12  and  C34_34
REMARK   12  A    between atoms: O13_13  and  C38_38
REMARK   13  A    between atoms: O14_14  and  C39_39
REMARK   14  A    between atoms: O15_15  and  C40_40
REMARK   15  A    between atoms: O16_16  and  C42_42
REMARK   16  A    between atoms: O17_17  and  C43_43
REMARK   17  A    between atoms: O18_18  and  C44_44
REMARK   18  A    between atoms: N19_19  and  C20_20
REMARK   19  A    between atoms: N19_19  and  C28_28
REMARK   20  A    between atoms: C24_24  and  C35_35
REMARK   21  A    between atoms: C27_27  and  C39_39
REMARK   22  A    between atoms: C36_36  and  C43_43
REMARK   23  A    between atoms: C41_41  and  C44_44
REMARK                            x       y       z     vdW  Elec       q    Type
REMARK                         _______ _______ _______ _____ _____    ______ ____
ROOT
ATOM      1  O1  UNK     0      42.027  18.184 196.930  0.00  0.00    +0.000 OA
ENDROOT
BRANCH   1   7
ATOM      2  O2  UNK     0      40.109  16.985 197.534  0.00  0.00    +0.000 OA
ATOM      3  C20 UNK     0      39.520  16.477 199.878  0.00  0.00    +0.000 C 
ATOM      4  C21 UNK     0      40.606  17.469 200.337  0.00  0.00    +0.000 C 
ATOM      5  C23 UNK     0      41.661  17.725 199.257  0.00  0.00    +0.000 C 
ATOM      6  C24 UNK     0      39.023  16.760 198.444  0.00  0.00    +0.000 C 
ATOM      7  C25 UNK     0      41.002  18.031 197.910  0.00  0.00    +0.000 C 
ATOM      8  C35 UNK     0      38.001  17.896 198.366  0.00  0.00    +0.000 C 
BRANCH   4   9
ATOM      9  O5  UNK     0      40.005  18.717 200.680  0.00  0.00    +0.000 OA
ATOM     10  H70 UNK     0      39.833  18.707 201.638  0.00  0.00    +0.000 HD
ENDBRANCH   4   9
BRANCH   5  11
ATOM     11  O6  UNK     0      42.493  16.575 199.109  0.00  0.00    +0.000 OA
ATOM     12  H72 UNK     0      41.922  15.790 199.174  0.00  0.00    +0.000 HD
ENDBRANCH   5  11
BRANCH   3  13
ATOM     13  N19 UNK     0      40.061  15.111 199.924  0.00  0.00    +0.000 NA
ATOM     14  H55 UNK     0      40.862  15.033 199.300  0.00  0.00    +0.000 HD
BRANCH  13  15
ATOM     15  C28 UNK     0      40.439  14.753 201.294  0.00  0.00    +0.000 C 
ATOM     16  C31 UNK     0      41.533  13.663 201.294  0.00  0.00    +0.000 C 
ATOM     17  C33 UNK     0      41.745  13.087 202.701  0.00  0.00    +0.000 C 
ATOM     18  C37 UNK     0      39.234  14.379 202.117  0.00  0.00    +0.000 C 
ATOM     19  C38 UNK     0      40.441  12.536 203.310  0.00  0.00    +0.000 C 
ATOM     20  C41 UNK     0      39.219  13.378 203.015  0.00  0.00    +0.000 C 
BRANCH  16  21
ATOM     21  O10 UNK     0      41.215  12.604 200.391  0.00  0.00    +0.000 OA
ATOM     22  H77 UNK     0      40.796  13.001 199.609  0.00  0.00    +0.000 HD
ENDBRANCH  16  21
BRANCH  17  23
ATOM     23  O11 UNK     0      42.250  14.105 203.564  0.00  0.00    +0.000 OA
ATOM     24  H80 UNK     0      41.487  14.560 203.960  0.00  0.00    +0.000 HD
ENDBRANCH  17  23
BRANCH  19  25
ATOM     25  O13 UNK     0      40.195  11.224 202.807  0.00  0.00    +0.000 OA
ATOM     26  H82 UNK     0      40.081  11.295 201.844  0.00  0.00    +0.000 HD
ENDBRANCH  19  25
BRANCH  20  27
ATOM     27  C44 UNK     0      37.981  13.049 203.799  0.00  0.00    +0.000 C 
BRANCH  27  28
ATOM     28  O18 UNK     0      37.530  11.754 203.453  0.00  0.00    +0.000 OA
ATOM     29  H87 UNK     0      37.202  11.798 202.538  0.00  0.00    +0.000 HD
ENDBRANCH  27  28
ENDBRANCH  20  27
ENDBRANCH  13  15
ENDBRANCH   3  13
ENDBRANCH   1   7
BRANCH   1  31
ATOM     30  O3  UNK     0      41.606  18.096 193.979  0.00  0.00    +0.000 OA
ATOM     31  C22 UNK     0      41.790  19.326 196.100  0.00  0.00    +0.000 C 
ATOM     32  C26 UNK     0      43.154  19.869 195.657  0.00  0.00    +0.000 C 
ATOM     33  C27 UNK     0      40.890  18.895 194.929  0.00  0.00    +0.000 C 
ATOM     34  C29 UNK     0      43.783  19.004 194.562  0.00  0.00    +0.000 C 
ATOM     35  C30 UNK     0      42.779  18.705 193.446  0.00  0.00    +0.000 C 
BRANCH  32  36
ATOM     36  O7  UNK     0      43.012  21.196 195.159  0.00  0.00    +0.000 OA
ATOM     37  H73 UNK     0      43.468  21.237 194.302  0.00  0.00    +0.000 HD
ENDBRANCH  32  36
BRANCH  34  38
ATOM     38  O9  UNK     0      44.247  17.779 195.130  0.00  0.00    +0.000 OA
ATOM     39  H74 UNK     0      43.699  17.591 195.911  0.00  0.00    +0.000 HD
ENDBRANCH  34  38
BRANCH  35  40
ATOM     40  O4  UNK     0      43.403  17.839 192.500  0.00  0.00    +0.000 OA
BRANCH  40  42
ATOM     41  O8  UNK     0      42.509  14.407 191.497  0.00  0.00    +0.000 OA
ATOM     42  C32 UNK     0      42.539  16.766 192.130  0.00  0.00    +0.000 C 
ATOM     43  C34 UNK     0      41.866  17.135 190.806  0.00  0.00    +0.000 C 
ATOM     44  C36 UNK     0      43.336  15.461 192.002  0.00  0.00    +0.000 C 
ATOM     45  C40 UNK     0      41.101  15.939 190.242  0.00  0.00    +0.000 C 
ATOM     46  C42 UNK     0      41.969  14.681 190.202  0.00  0.00    +0.000 C 
BRANCH  43  47
ATOM     47  O12 UNK     0      40.947  18.203 191.054  0.00  0.00    +0.000 OA
ATOM     48  H81 UNK     0      41.430  18.926 191.488  0.00  0.00    +0.000 HD
ENDBRANCH  43  47
BRANCH  45  49
ATOM     49  O15 UNK     0      40.629  16.255 188.937  0.00  0.00    +0.000 OA
ATOM     50  H84 UNK     0      39.660  16.166 188.946  0.00  0.00    +0.000 HD
ENDBRANCH  45  49
BRANCH  46  51
ATOM     51  O16 UNK     0      42.980  14.744 189.198  0.00  0.00    +0.000 OA
ATOM     52  H85 UNK     0      43.156  15.684 189.027  0.00  0.00    +0.000 HD
ENDBRANCH  46  51
BRANCH  44  53
ATOM     53  C43 UNK     0      43.887  14.992 193.346  0.00  0.00    +0.000 C 
BRANCH  53  54
ATOM     54  O17 UNK     0      43.015  15.434 194.369  0.00  0.00    +0.000 OA
ATOM     55  H86 UNK     0      43.557  15.589 195.161  0.00  0.00    +0.000 HD
ENDBRANCH  53  54
ENDBRANCH  44  53
ENDBRANCH  40  42
ENDBRANCH  35  40
BRANCH  33  56
ATOM     56  C39 UNK     0      40.172  20.057 194.246  0.00  0.00    +0.000 C 
BRANCH  56  57
ATOM     57  O14 UNK     0      39.380  19.541 193.192  0.00  0.00    +0.000 OA
ATOM     58  H83 UNK     0      38.778  18.885 193.582  0.00  0.00    +0.000 HD
ENDBRANCH  56  57
ENDBRANCH  33  56
ENDBRANCH   1  31
TORSDOF 22
ENDMDL
