MODEL 1
REMARK VINA RESULT:    -2.039      0.000      0.000
REMARK INTER + INTRA:          -6.883
REMARK INTER:                  -3.886
REMARK INTRA:                  -2.997
REMARK UNBOUND:                -2.997
REMARK  10 active torsions:
REMARK  status: ('A' for Active; 'I' for Inactive)
REMARK    1  A    between atoms: N2_1  and  C1_2 
REMARK    2  A    between atoms: C1_2  and  C6_3 
REMARK    3  A    between atoms: C1_2  and  C2_10 
REMARK    4  A    between atoms: C6_3  and  C7_4 
REMARK    5  A    between atoms: C2_10  and  O2_11 
REMARK    6  A    between atoms: C2_10  and  C3_12 
REMARK       I    between atoms: C3_12  and  N1_14 
REMARK    7  A    between atoms: N1_14  and  C4_15 
REMARK    8  A    between atoms: C4_15  and  C13_16 
REMARK    9  A    between atoms: C4_15  and  C5_20 
REMARK   10  A    between atoms: C13_16  and  C14_17 
ROOT
HETATM    1  N2  BES   501      36.134  10.116 194.335  1.00  0.00    -0.423 N 
HETATM    2  H1  BES   501      35.862  11.052 194.777  1.00  0.00     0.150 HD
HETATM    3  H2  BES   501      35.473   9.640 193.640  1.00  0.00     0.150 HD
ENDROOT
BRANCH   1   4
HETATM    4  C1  BES   501      37.385   9.496 194.675  1.00  0.00     0.116 C 
BRANCH   4   5
HETATM    5  C6  BES   501      38.008   8.565 193.630  1.00  0.00     0.066 C 
BRANCH   5   6
HETATM    6  C7  BES   501      39.067   9.243 192.745  1.00  0.00    -0.056 A 
HETATM    7  C8  BES   501      40.205   8.542 192.288  1.00  0.00     0.007 A 
HETATM    8  C9  BES   501      41.158   9.191 191.472  1.00  0.00     0.001 A 
HETATM    9  C10 BES   501      40.973  10.521 191.104  1.00  0.00     0.000 A 
HETATM   10  C11 BES   501      39.836  11.216 191.554  1.00  0.00     0.001 A 
HETATM   11  C12 BES   501      38.882  10.569 192.370  1.00  0.00     0.007 A 
ENDBRANCH   5   6
ENDBRANCH   4   5
BRANCH   4  12
HETATM   12  C2  BES   501      37.121   8.659 195.888  1.00  0.00     0.232 C 
BRANCH  12  13
HETATM   13  O2  BES   501      36.069   9.209 196.572  1.00  0.00    -0.384 OA
HETATM   14  H12 BES   501      36.143  10.255 196.546  1.00  0.00     0.210 HD
ENDBRANCH  12  13
BRANCH  12  15
HETATM   15  C3  BES   501      38.346   8.651 196.755  1.00  0.00     0.249 C 
HETATM   16  O3  BES   501      38.604   7.627 197.347  1.00  0.00    -0.271 OA
HETATM   17  N1  BES   501      39.168   9.866 196.844  1.00  0.00    -0.344 N 
HETATM   18  H23 BES   501      38.862  10.718 196.272  1.00  0.00     0.163 HD
BRANCH  17  19
HETATM   19  C4  BES   501      40.376   9.993 197.658  1.00  0.00     0.185 C 
BRANCH  19  20
HETATM   20  C13 BES   501      41.447  10.759 196.874  1.00  0.00     0.040 C 
BRANCH  20  21
HETATM   21  C14 BES   501      41.446  10.336 195.420  1.00  0.00    -0.020 C 
HETATM   22  C15 BES   501      41.936  11.499 194.557  1.00  0.00     0.009 C 
HETATM   23  C16 BES   501      42.312   9.135 195.206  1.00  0.00     0.009 C 
ENDBRANCH  20  21
ENDBRANCH  19  20
BRANCH  19  24
HETATM   24  C5  BES   501      40.018  10.787 198.872  1.00  0.00     0.196 C 
HETATM   25  O1  BES   501      39.368  10.236 199.803  1.00  0.00    -0.646 OA
HETATM   26  O4  BES   501      40.436  11.986 198.928  1.00  0.00    -0.646 OA
ENDBRANCH  19  24
ENDBRANCH  17  19
ENDBRANCH  12  15
ENDBRANCH   4  12
ENDBRANCH   1   4
TORSDOF 10
REMARK  7 active torsions:
REMARK  status: ('A' for Active; 'I' for Inactive)
REMARK    1  A    between atoms: N2_1  and  C1_2 
REMARK    2  A    between atoms: C1_2  and  C2_3 
REMARK    3  A    between atoms: C2_3  and  C3_4 
REMARK       I    between atoms: C3_4  and  N1_6 
REMARK    4  A    between atoms: N1_6  and  C4_7 
REMARK    5  A    between atoms: C4_7  and  C13_8 
REMARK    6  A    between atoms: C4_7  and  C5_10 
REMARK    7  A    between atoms: C13_8  and  C7_9 
ROOT
HETATM    1  N2  BES   501      37.807  12.955 200.537  1.00  0.00    -0.079 N 
HETATM    2  H1  BES   501      36.869  13.309 200.161  1.00  0.00     0.274 HD
HETATM    3  H2  BES   501      37.632  12.283 201.351  1.00  0.00     0.274 HD
HETATM    4  H1  BES   501      38.331  12.442 199.757  1.00  0.00     0.274 HD
ENDROOT
BRANCH   1   5
HETATM    5  C1  BES   501      38.614  14.098 201.005  1.00  0.00     0.238 C 
BRANCH   5   6
HETATM    6  C2  BES   501      38.941  15.075 199.917  1.00  0.00     0.123 C 
BRANCH   6   7
HETATM    7  C3  BES   501      38.029  14.829 198.750  1.00  0.00     0.199 C 
HETATM    8  O3  BES   501      36.992  15.454 198.713  1.00  0.00    -0.280 OA
HETATM    9  N1  BES   501      38.430  13.862 197.719  1.00  0.00    -0.248 NA
HETATM   10  H7  BES   501      38.583  12.937 198.236  1.00  0.00     0.131 HD
BRANCH   9  11
HETATM   11  C4  BES   501      37.630  13.525 196.542  1.00  0.00     0.169 C 
BRANCH  11  12
HETATM   12  C13 BES   501      38.543  12.981 195.438  1.00  0.00     0.089 C 
BRANCH  12  13
HETATM   13  C7  BES   501      38.280  13.714 194.110  1.00  0.00     0.031 A 
HETATM   14  C21 BES   501      36.989  13.636 193.273  1.00  0.00     0.143 A 
HETATM   15  N22 BES   501      37.173  14.527 192.031  1.00  0.00    -0.254 N 
HETATM   16  C23 BES   501      38.576  15.157 192.099  1.00  0.00     0.209 A 
HETATM   17  N24 BES   501      39.260  14.654 193.385  1.00  0.00    -0.348 N 
HETATM   18  C1  BES   501      40.659  15.022 193.855  1.00  0.00     0.157 C 
ENDBRANCH  12  13
ENDBRANCH  11  12
BRANCH  11  19
HETATM   19  C5  BES   501      36.674  12.449 196.942  1.00  0.00     0.192 C 
HETATM   20  O1  BES   501      36.939  11.726 197.941  1.00  0.00    -0.647 OA
HETATM   21  O4  BES   501      35.601  12.344 196.269  1.00  0.00    -0.647 OA
ENDBRANCH  11  19
ENDBRANCH   9  11
ENDBRANCH   6   7
ENDBRANCH   5   6
ENDBRANCH   1   5
TORSDOF 7
ENDMDL
MODEL 2
REMARK VINA RESULT:    -2.016      2.678      7.037
REMARK INTER + INTRA:          -6.840
REMARK INTER:                  -3.621
REMARK INTRA:                  -3.219
REMARK UNBOUND:                -2.997
REMARK  10 active torsions:
REMARK  status: ('A' for Active; 'I' for Inactive)
REMARK    1  A    between atoms: N2_1  and  C1_2 
REMARK    2  A    between atoms: C1_2  and  C6_3 
REMARK    3  A    between atoms: C1_2  and  C2_10 
REMARK    4  A    between atoms: C6_3  and  C7_4 
REMARK    5  A    between atoms: C2_10  and  O2_11 
REMARK    6  A    between atoms: C2_10  and  C3_12 
REMARK       I    between atoms: C3_12  and  N1_14 
REMARK    7  A    between atoms: N1_14  and  C4_15 
REMARK    8  A    between atoms: C4_15  and  C13_16 
REMARK    9  A    between atoms: C4_15  and  C5_20 
REMARK   10  A    between atoms: C13_16  and  C14_17 
ROOT
HETATM    1  N2  BES   501      39.185  12.961 197.031  1.00  0.00    -0.423 N 
HETATM    2  H1  BES   501      39.836  12.144 197.266  1.00  0.00     0.150 HD
HETATM    3  H2  BES   501      38.517  13.343 197.775  1.00  0.00     0.150 HD
ENDROOT
BRANCH   1   4
HETATM    4  C1  BES   501      39.208  13.543 195.718  1.00  0.00     0.116 C 
BRANCH   4   5
HETATM    5  C6  BES   501      40.056  14.805 195.530  1.00  0.00     0.066 C 
BRANCH   5   6
HETATM    6  C7  BES   501      41.248  14.617 194.576  1.00  0.00    -0.056 A 
HETATM    7  C8  BES   501      41.906  15.722 193.992  1.00  0.00     0.007 A 
HETATM    8  C9  BES   501      43.001  15.518 193.124  1.00  0.00     0.001 A 
HETATM    9  C10 BES   501      43.445  14.227 192.851  1.00  0.00     0.000 A 
HETATM   10  C11 BES   501      42.793  13.128 193.438  1.00  0.00     0.001 A 
HETATM   11  C12 BES   501      41.698  13.330 194.307  1.00  0.00     0.007 A 
ENDBRANCH   5   6
ENDBRANCH   4   5
BRANCH   4  12
HETATM   12  C2  BES   501      37.795  13.929 195.407  1.00  0.00     0.232 C 
BRANCH  12  13
HETATM   13  O2  BES   501      36.964  12.953 195.890  1.00  0.00    -0.384 OA
HETATM   14  H12 BES   501      36.359  13.352 196.649  1.00  0.00     0.210 HD
ENDBRANCH  12  13
BRANCH  12  15
HETATM   15  C3  BES   501      37.634  14.047 193.919  1.00  0.00     0.249 C 
HETATM   16  O3  BES   501      37.028  15.007 193.499  1.00  0.00    -0.271 OA
HETATM   17  N1  BES   501      38.212  13.012 193.052  1.00  0.00    -0.344 N 
HETATM   18  H23 BES   501      38.741  12.207 193.521  1.00  0.00     0.163 HD
BRANCH  17  19
HETATM   19  C4  BES   501      38.118  13.003 191.593  1.00  0.00     0.185 C 
BRANCH  19  20
HETATM   20  C13 BES   501      39.521  12.905 190.987  1.00  0.00     0.040 C 
BRANCH  20  21
HETATM   21  C14 BES   501      40.185  14.268 190.959  1.00  0.00    -0.020 C 
HETATM   22  C15 BES   501      41.293  14.265 189.905  1.00  0.00     0.009 C 
HETATM   23  C16 BES   501      39.191  15.345 190.659  1.00  0.00     0.009 C 
ENDBRANCH  20  21
ENDBRANCH  19  20
BRANCH  19  24
HETATM   24  C5  BES   501      37.345  11.787 191.200  1.00  0.00     0.196 C 
HETATM   25  O1  BES   501      36.094  11.769 191.362  1.00  0.00    -0.646 OA
HETATM   26  O4  BES   501      37.994  10.832 190.668  1.00  0.00    -0.646 OA
ENDBRANCH  19  24
ENDBRANCH  17  19
ENDBRANCH  12  15
ENDBRANCH   4  12
ENDBRANCH   1   4
TORSDOF 10
REMARK  7 active torsions:
REMARK  status: ('A' for Active; 'I' for Inactive)
REMARK    1  A    between atoms: N2_1  and  C1_2 
REMARK    2  A    between atoms: C1_2  and  C2_3 
REMARK    3  A    between atoms: C2_3  and  C3_4 
REMARK       I    between atoms: C3_4  and  N1_6 
REMARK    4  A    between atoms: N1_6  and  C4_7 
REMARK    5  A    between atoms: C4_7  and  C13_8 
REMARK    6  A    between atoms: C4_7  and  C5_10 
REMARK    7  A    between atoms: C13_8  and  C7_9 
ROOT
HETATM    1  N2  BES   501      35.359   8.957 192.485  1.00  0.00    -0.079 N 
HETATM    2  H1  BES   501      35.401   8.297 193.327  1.00  0.00     0.274 HD
HETATM    3  H2  BES   501      34.382   9.387 192.418  1.00  0.00     0.274 HD
HETATM    4  H1  BES   501      36.084   9.734 192.607  1.00  0.00     0.274 HD
ENDROOT
BRANCH   1   5
HETATM    5  C1  BES   501      35.651   8.200 191.252  1.00  0.00     0.238 C 
BRANCH   5   6
HETATM    6  C2  BES   501      36.845   7.305 191.377  1.00  0.00     0.123 C 
BRANCH   6   7
HETATM    7  C3  BES   501      37.534   7.589 192.680  1.00  0.00     0.199 C 
HETATM    8  O3  BES   501      37.388   6.786 193.573  1.00  0.00    -0.280 OA
HETATM    9  N1  BES   501      38.347   8.806 192.809  1.00  0.00    -0.248 NA
HETATM   10  H7  BES   501      37.686   9.618 192.586  1.00  0.00     0.131 HD
BRANCH   9  11
HETATM   11  C4  BES   501      39.059   9.203 194.024  1.00  0.00     0.169 C 
BRANCH  11  12
HETATM   12  C13 BES   501      40.250  10.092 193.654  1.00  0.00     0.089 C 
BRANCH  12  13
HETATM   13  C7  BES   501      41.575   9.406 194.037  1.00  0.00     0.031 A 
HETATM   14  C21 BES   501      42.393   8.454 193.144  1.00  0.00     0.143 A 
HETATM   15  N22 BES   501      43.636   8.010 193.936  1.00  0.00    -0.254 N 
HETATM   16  C23 BES   501      43.588   8.688 195.319  1.00  0.00     0.209 A 
HETATM   17  N24 BES   501      42.313   9.550 195.380  1.00  0.00    -0.348 N 
HETATM   18  C1  BES   501      41.863  10.395 196.562  1.00  0.00     0.157 C 
ENDBRANCH  12  13
ENDBRANCH  11  12
BRANCH  11  19
HETATM   19  C5  BES   501      38.111  10.000 194.859  1.00  0.00     0.192 C 
HETATM   20  O1  BES   501      37.071  10.479 194.329  1.00  0.00    -0.647 OA
HETATM   21  O4  BES   501      38.384  10.121 196.094  1.00  0.00    -0.647 OA
ENDBRANCH  11  19
ENDBRANCH   9  11
ENDBRANCH   6   7
ENDBRANCH   5   6
ENDBRANCH   1   5
TORSDOF 7
ENDMDL
MODEL 3
REMARK VINA RESULT:    -1.997      5.525      8.487
REMARK INTER + INTRA:          -6.803
REMARK INTER:                  -3.660
REMARK INTRA:                  -3.143
REMARK UNBOUND:                -2.997
REMARK  10 active torsions:
REMARK  status: ('A' for Active; 'I' for Inactive)
REMARK    1  A    between atoms: N2_1  and  C1_2 
REMARK    2  A    between atoms: C1_2  and  C6_3 
REMARK    3  A    between atoms: C1_2  and  C2_10 
REMARK    4  A    between atoms: C6_3  and  C7_4 
REMARK    5  A    between atoms: C2_10  and  O2_11 
REMARK    6  A    between atoms: C2_10  and  C3_12 
REMARK       I    between atoms: C3_12  and  N1_14 
REMARK    7  A    between atoms: N1_14  and  C4_15 
REMARK    8  A    between atoms: C4_15  and  C13_16 
REMARK    9  A    between atoms: C4_15  and  C5_20 
REMARK   10  A    between atoms: C13_16  and  C14_17 
ROOT
HETATM    1  N2  BES   501      38.549  20.551 195.475  1.00  0.00    -0.423 N 
HETATM    2  H1  BES   501      38.818  21.548 195.753  1.00  0.00     0.150 HD
HETATM    3  H2  BES   501      37.590  20.356 195.041  1.00  0.00     0.150 HD
ENDROOT
BRANCH   1   4
HETATM    4  C1  BES   501      39.475  19.472 195.685  1.00  0.00     0.116 C 
BRANCH   4   5
HETATM    5  C6  BES   501      40.902  19.667 195.163  1.00  0.00     0.066 C 
BRANCH   5   6
HETATM    6  C7  BES   501      41.982  19.570 196.254  1.00  0.00    -0.056 A 
HETATM    7  C8  BES   501      43.343  19.377 195.929  1.00  0.00     0.007 A 
HETATM    8  C9  BES   501      44.312  19.297 196.953  1.00  0.00     0.001 A 
HETATM    9  C10 BES   501      43.932  19.421 198.287  1.00  0.00     0.000 A 
HETATM   10  C11 BES   501      42.577  19.621 198.609  1.00  0.00     0.001 A 
HETATM   11  C12 BES   501      41.606  19.701 197.586  1.00  0.00     0.007 A 
ENDBRANCH   5   6
ENDBRANCH   4   5
BRANCH   4  12
HETATM   12  C2  BES   501      38.913  18.291 194.956  1.00  0.00     0.232 C 
BRANCH  12  13
HETATM   13  O2  BES   501      37.552  18.295 195.110  1.00  0.00    -0.384 OA
HETATM   14  H12 BES   501      37.292  18.919 195.912  1.00  0.00     0.210 HD
ENDBRANCH  12  13
BRANCH  12  15
HETATM   15  C3  BES   501      39.490  17.034 195.538  1.00  0.00     0.249 C 
HETATM   16  O3  BES   501      39.912  16.203 194.765  1.00  0.00    -0.271 OA
HETATM   17  N1  BES   501      39.520  16.870 196.998  1.00  0.00    -0.344 N 
HETATM   18  H23 BES   501      39.133  17.668 197.597  1.00  0.00     0.163 HD
BRANCH  17  19
HETATM   19  C4  BES   501      40.044  15.693 197.690  1.00  0.00     0.185 C 
BRANCH  19  20
HETATM   20  C13 BES   501      40.992  16.134 198.810  1.00  0.00     0.040 C 
BRANCH  20  21
HETATM   21  C14 BES   501      42.369  15.534 198.608  1.00  0.00    -0.020 C 
HETATM   22  C15 BES   501      42.866  15.877 197.203  1.00  0.00     0.009 C 
HETATM   23  C16 BES   501      43.334  16.040 199.633  1.00  0.00     0.009 C 
ENDBRANCH  20  21
ENDBRANCH  19  20
BRANCH  19  24
HETATM   24  C5  BES   501      38.884  14.980 198.304  1.00  0.00     0.196 C 
HETATM   25  O1  BES   501      38.094  14.332 197.565  1.00  0.00    -0.646 OA
HETATM   26  O4  BES   501      38.778  15.023 199.570  1.00  0.00    -0.646 OA
ENDBRANCH  19  24
ENDBRANCH  17  19
ENDBRANCH  12  15
ENDBRANCH   4  12
ENDBRANCH   1   4
TORSDOF 10
REMARK  7 active torsions:
REMARK  status: ('A' for Active; 'I' for Inactive)
REMARK    1  A    between atoms: N2_1  and  C1_2 
REMARK    2  A    between atoms: C1_2  and  C2_3 
REMARK    3  A    between atoms: C2_3  and  C3_4 
REMARK       I    between atoms: C3_4  and  N1_6 
REMARK    4  A    between atoms: N1_6  and  C4_7 
REMARK    5  A    between atoms: C4_7  and  C13_8 
REMARK    6  A    between atoms: C4_7  and  C5_10 
REMARK    7  A    between atoms: C13_8  and  C7_9 
ROOT
HETATM    1  N2  BES   501      35.506  15.150 199.139  1.00  0.00    -0.079 N 
HETATM    2  H1  BES   501      35.441  16.217 199.185  1.00  0.00     0.274 HD
HETATM    3  H2  BES   501      34.732  14.773 198.503  1.00  0.00     0.274 HD
HETATM    4  H1  BES   501      36.460  14.868 198.745  1.00  0.00     0.274 HD
ENDROOT
BRANCH   1   5
HETATM    5  C1  BES   501      35.348  14.588 200.495  1.00  0.00     0.238 C 
BRANCH   5   6
HETATM    6  C2  BES   501      35.873  15.486 201.572  1.00  0.00     0.123 C 
BRANCH   6   7
HETATM    7  C3  BES   501      35.930  16.893 201.049  1.00  0.00     0.199 C 
HETATM    8  O3  BES   501      34.956  17.590 201.221  1.00  0.00    -0.280 OA
HETATM    9  N1  BES   501      37.148  17.354 200.368  1.00  0.00    -0.248 NA
HETATM   10  H7  BES   501      37.295  16.678 199.552  1.00  0.00     0.131 HD
BRANCH   9  11
HETATM   11  C4  BES   501      37.327  18.693 199.806  1.00  0.00     0.169 C 
BRANCH  11  12
HETATM   12  C13 BES   501      38.816  19.054 199.803  1.00  0.00     0.089 C 
BRANCH  12  13
HETATM   13  C7  BES   501      39.068  20.310 200.658  1.00  0.00     0.031 A 
HETATM   14  C21 BES   501      39.254  20.342 202.187  1.00  0.00     0.143 A 
HETATM   15  N22 BES   501      39.478  21.805 202.609  1.00  0.00    -0.254 N 
HETATM   16  C23 BES   501      39.432  22.679 201.341  1.00  0.00     0.209 A 
HETATM   17  N24 BES   501      39.179  21.754 200.136  1.00  0.00    -0.348 N 
HETATM   18  C1  BES   501      39.058  22.190 198.684  1.00  0.00     0.157 C 
ENDBRANCH  12  13
ENDBRANCH  11  12
BRANCH  11  19
HETATM   19  C5  BES   501      36.844  18.654 198.394  1.00  0.00     0.192 C 
HETATM   20  O1  BES   501      36.646  19.737 197.777  1.00  0.00    -0.647 OA
HETATM   21  O4  BES   501      36.697  17.510 197.860  1.00  0.00    -0.647 OA
ENDBRANCH  11  19
ENDBRANCH   9  11
ENDBRANCH   6   7
ENDBRANCH   5   6
ENDBRANCH   1   5
TORSDOF 7
ENDMDL
MODEL 4
REMARK VINA RESULT:    -1.995      4.262      7.093
REMARK INTER + INTRA:          -6.801
REMARK INTER:                  -3.665
REMARK INTRA:                  -3.135
REMARK UNBOUND:                -2.997
REMARK  10 active torsions:
REMARK  status: ('A' for Active; 'I' for Inactive)
REMARK    1  A    between atoms: N2_1  and  C1_2 
REMARK    2  A    between atoms: C1_2  and  C6_3 
REMARK    3  A    between atoms: C1_2  and  C2_10 
REMARK    4  A    between atoms: C6_3  and  C7_4 
REMARK    5  A    between atoms: C2_10  and  O2_11 
REMARK    6  A    between atoms: C2_10  and  C3_12 
REMARK       I    between atoms: C3_12  and  N1_14 
REMARK    7  A    between atoms: N1_14  and  C4_15 
REMARK    8  A    between atoms: C4_15  and  C13_16 
REMARK    9  A    between atoms: C4_15  and  C5_20 
REMARK   10  A    between atoms: C13_16  and  C14_17 
ROOT
HETATM    1  N2  BES   501      43.346  13.619 196.637  1.00  0.00    -0.423 N 
HETATM    2  H1  BES   501      42.789  14.067 197.433  1.00  0.00     0.150 HD
HETATM    3  H2  BES   501      44.411  13.716 196.609  1.00  0.00     0.150 HD
ENDROOT
BRANCH   1   4
HETATM    4  C1  BES   501      42.664  12.888 195.605  1.00  0.00     0.116 C 
BRANCH   4   5
HETATM    5  C6  BES   501      42.070  11.529 195.990  1.00  0.00     0.066 C 
BRANCH   5   6
HETATM    6  C7  BES   501      40.536  11.475 195.908  1.00  0.00    -0.056 A 
HETATM    7  C8  BES   501      39.761  12.650 195.787  1.00  0.00     0.007 A 
HETATM    8  C9  BES   501      38.354  12.567 195.708  1.00  0.00     0.001 A 
HETATM    9  C10 BES   501      37.724  11.327 195.737  1.00  0.00     0.000 A 
HETATM   10  C11 BES   501      38.496  10.156 195.850  1.00  0.00     0.001 A 
HETATM   11  C12 BES   501      39.904  10.237 195.928  1.00  0.00     0.007 A 
ENDBRANCH   5   6
ENDBRANCH   4   5
BRANCH   4  12
HETATM   12  C2  BES   501      43.681  12.622 194.539  1.00  0.00     0.232 C 
BRANCH  12  13
HETATM   13  O2  BES   501      44.403  13.768 194.335  1.00  0.00    -0.384 OA
HETATM   14  H12 BES   501      44.128  14.196 193.417  1.00  0.00     0.210 HD
ENDBRANCH  12  13
BRANCH  12  15
HETATM   15  C3  BES   501      42.975  12.229 193.274  1.00  0.00     0.249 C 
HETATM   16  O3  BES   501      43.372  11.241 192.698  1.00  0.00    -0.271 OA
HETATM   17  N1  BES   501      41.851  13.047 192.798  1.00  0.00    -0.344 N 
HETATM   18  H23 BES   501      41.569  13.896 193.386  1.00  0.00     0.163 HD
BRANCH  17  19
HETATM   19  C4  BES   501      41.088  12.781 191.580  1.00  0.00     0.185 C 
BRANCH  19  20
HETATM   20  C13 BES   501      39.609  12.585 191.930  1.00  0.00     0.040 C 
BRANCH  20  21
HETATM   21  C14 BES   501      39.341  11.146 192.320  1.00  0.00    -0.020 C 
HETATM   22  C15 BES   501      37.858  10.837 192.116  1.00  0.00     0.009 C 
HETATM   23  C16 BES   501      40.180  10.203 191.516  1.00  0.00     0.009 C 
ENDBRANCH  20  21
ENDBRANCH  19  20
BRANCH  19  24
HETATM   24  C5  BES   501      41.213  13.982 190.701  1.00  0.00     0.196 C 
HETATM   25  O1  BES   501      41.790  13.875 189.585  1.00  0.00    -0.646 OA
HETATM   26  O4  BES   501      40.677  15.060 191.109  1.00  0.00    -0.646 OA
ENDBRANCH  19  24
ENDBRANCH  17  19
ENDBRANCH  12  15
ENDBRANCH   4  12
ENDBRANCH   1   4
TORSDOF 10
REMARK  7 active torsions:
REMARK  status: ('A' for Active; 'I' for Inactive)
REMARK    1  A    between atoms: N2_1  and  C1_2 
REMARK    2  A    between atoms: C1_2  and  C2_3 
REMARK    3  A    between atoms: C2_3  and  C3_4 
REMARK       I    between atoms: C3_4  and  N1_6 
REMARK    4  A    between atoms: N1_6  and  C4_7 
REMARK    5  A    between atoms: C4_7  and  C13_8 
REMARK    6  A    between atoms: C4_7  and  C5_10 
REMARK    7  A    between atoms: C13_8  and  C7_9 
ROOT
HETATM    1  N2  BES   501      45.995  16.016 193.112  1.00  0.00    -0.079 N 
HETATM    2  H1  BES   501      47.026  16.175 193.350  1.00  0.00     0.274 HD
HETATM    3  H2  BES   501      45.579  15.300 193.790  1.00  0.00     0.274 HD
HETATM    4  H1  BES   501      45.463  16.941 193.200  1.00  0.00     0.274 HD
ENDROOT
BRANCH   1   5
HETATM    5  C1  BES   501      45.880  15.511 191.730  1.00  0.00     0.238 C 
BRANCH   5   6
HETATM    6  C2  BES   501      44.508  15.677 191.153  1.00  0.00     0.123 C 
BRANCH   6   7
HETATM    7  C3  BES   501      43.707  16.579 192.048  1.00  0.00     0.199 C 
HETATM    8  O3  BES   501      43.758  17.768 191.828  1.00  0.00    -0.280 OA
HETATM    9  N1  BES   501      42.908  15.988 193.129  1.00  0.00    -0.248 NA
HETATM   10  H7  BES   501      43.600  15.434 193.730  1.00  0.00     0.131 HD
BRANCH   9  11
HETATM   11  C4  BES   501      42.095  16.753 194.075  1.00  0.00     0.169 C 
BRANCH  11  12
HETATM   12  C13 BES   501      40.927  15.892 194.564  1.00  0.00     0.089 C 
BRANCH  12  13
HETATM   13  C7  BES   501      39.614  16.697 194.535  1.00  0.00     0.031 A 
HETATM   14  C21 BES   501      39.081  17.518 193.346  1.00  0.00     0.143 A 
HETATM   15  N22 BES   501      37.742  18.151 193.767  1.00  0.00    -0.254 N 
HETATM   16  C23 BES   501      37.446  17.721 195.216  1.00  0.00     0.209 A 
HETATM   17  N24 BES   501      38.604  16.822 195.690  1.00  0.00    -0.348 N 
HETATM   18  C1  BES   501      38.727  16.172 197.060  1.00  0.00     0.157 C 
ENDBRANCH  12  13
ENDBRANCH  11  12
BRANCH  11  19
HETATM   19  C5  BES   501      42.962  17.088 195.244  1.00  0.00     0.192 C 
HETATM   20  O1  BES   501      43.941  16.342 195.523  1.00  0.00    -0.647 OA
HETATM   21  O4  BES   501      42.692  18.152 195.884  1.00  0.00    -0.647 OA
ENDBRANCH  11  19
ENDBRANCH   9  11
ENDBRANCH   6   7
ENDBRANCH   5   6
ENDBRANCH   1   5
TORSDOF 7
ENDMDL
MODEL 5
REMARK VINA RESULT:    -1.995      3.670      7.868
REMARK INTER + INTRA:          -6.800
REMARK INTER:                  -3.695
REMARK INTRA:                  -3.105
REMARK UNBOUND:                -2.997
REMARK  10 active torsions:
REMARK  status: ('A' for Active; 'I' for Inactive)
REMARK    1  A    between atoms: N2_1  and  C1_2 
REMARK    2  A    between atoms: C1_2  and  C6_3 
REMARK    3  A    between atoms: C1_2  and  C2_10 
REMARK    4  A    between atoms: C6_3  and  C7_4 
REMARK    5  A    between atoms: C2_10  and  O2_11 
REMARK    6  A    between atoms: C2_10  and  C3_12 
REMARK       I    between atoms: C3_12  and  N1_14 
REMARK    7  A    between atoms: N1_14  and  C4_15 
REMARK    8  A    between atoms: C4_15  and  C13_16 
REMARK    9  A    between atoms: C4_15  and  C5_20 
REMARK   10  A    between atoms: C13_16  and  C14_17 
ROOT
HETATM    1  N2  BES   501      35.688  18.186 194.047  1.00  0.00    -0.423 N 
HETATM    2  H1  BES   501      34.681  18.112 194.403  1.00  0.00     0.150 HD
HETATM    3  H2  BES   501      35.877  18.476 193.034  1.00  0.00     0.150 HD
ENDROOT
BRANCH   1   4
HETATM    4  C1  BES   501      36.785  17.895 194.928  1.00  0.00     0.116 C 
BRANCH   4   5
HETATM    5  C6  BES   501      37.090  18.922 196.023  1.00  0.00     0.066 C 
BRANCH   5   6
HETATM    6  C7  BES   501      36.808  18.416 197.447  1.00  0.00    -0.056 A 
HETATM    7  C8  BES   501      37.427  19.002 198.574  1.00  0.00     0.007 A 
HETATM    8  C9  BES   501      37.143  18.518 199.870  1.00  0.00     0.001 A 
HETATM    9  C10 BES   501      36.244  17.470 200.044  1.00  0.00     0.000 A 
HETATM   10  C11 BES   501      35.623  16.892 198.922  1.00  0.00     0.001 A 
HETATM   11  C12 BES   501      35.904  17.375 197.625  1.00  0.00     0.007 A 
ENDBRANCH   5   6
ENDBRANCH   4   5
BRANCH   4  12
HETATM   12  C2  BES   501      38.005  17.818 194.064  1.00  0.00     0.232 C 
BRANCH  12  13
HETATM   13  O2  BES   501      37.649  17.271 192.860  1.00  0.00    -0.384 OA
HETATM   14  H12 BES   501      37.913  17.927 192.085  1.00  0.00     0.210 HD
ENDBRANCH  12  13
BRANCH  12  15
HETATM   15  C3  BES   501      39.029  16.951 194.737  1.00  0.00     0.249 C 
HETATM   16  O3  BES   501      40.189  17.286 194.649  1.00  0.00    -0.271 OA
HETATM   17  N1  BES   501      38.586  15.753 195.464  1.00  0.00    -0.344 N 
HETATM   18  H23 BES   501      37.535  15.549 195.494  1.00  0.00     0.163 HD
BRANCH  17  19
HETATM   19  C4  BES   501      39.479  14.822 196.152  1.00  0.00     0.185 C 
BRANCH  19  20
HETATM   20  C13 BES   501      38.920  14.504 197.542  1.00  0.00     0.040 C 
BRANCH  20  21
HETATM   21  C14 BES   501      39.163  15.661 198.490  1.00  0.00    -0.020 C 
HETATM   22  C15 BES   501      39.069  15.159 199.932  1.00  0.00     0.009 C 
HETATM   23  C16 BES   501      40.501  16.286 198.248  1.00  0.00     0.009 C 
ENDBRANCH  20  21
ENDBRANCH  19  20
BRANCH  19  24
HETATM   24  C5  BES   501      39.512  13.560 195.354  1.00  0.00     0.196 C 
HETATM   25  O1  BES   501      40.309  13.463 194.381  1.00  0.00    -0.646 OA
HETATM   26  O4  BES   501      38.755  12.611 195.733  1.00  0.00    -0.646 OA
ENDBRANCH  19  24
ENDBRANCH  17  19
ENDBRANCH  12  15
ENDBRANCH   4  12
ENDBRANCH   1   4
TORSDOF 10
REMARK  7 active torsions:
REMARK  status: ('A' for Active; 'I' for Inactive)
REMARK    1  A    between atoms: N2_1  and  C1_2 
REMARK    2  A    between atoms: C1_2  and  C2_3 
REMARK    3  A    between atoms: C2_3  and  C3_4 
REMARK       I    between atoms: C3_4  and  N1_6 
REMARK    4  A    between atoms: N1_6  and  C4_7 
REMARK    5  A    between atoms: C4_7  and  C13_8 
REMARK    6  A    between atoms: C4_7  and  C5_10 
REMARK    7  A    between atoms: C13_8  and  C7_9 
ROOT
HETATM    1  N2  BES   501      38.298  11.815 192.564  1.00  0.00    -0.079 N 
HETATM    2  H1  BES   501      37.420  12.016 191.987  1.00  0.00     0.274 HD
HETATM    3  H2  BES   501      39.165  11.942 191.949  1.00  0.00     0.274 HD
HETATM    4  H1  BES   501      38.344  12.494 193.390  1.00  0.00     0.274 HD
ENDROOT
BRANCH   1   5
HETATM    5  C1  BES   501      38.251  10.428 193.068  1.00  0.00     0.238 C 
BRANCH   5   6
HETATM    6  C2  BES   501      36.929  10.065 193.672  1.00  0.00     0.123 C 
BRANCH   6   7
HETATM    7  C3  BES   501      35.999  11.237 193.553  1.00  0.00     0.199 C 
HETATM    8  O3  BES   501      35.160  11.196 192.681  1.00  0.00    -0.280 OA
HETATM    9  N1  BES   501      36.142  12.362 194.487  1.00  0.00    -0.248 NA
HETATM   10  H7  BES   501      37.148  12.708 194.370  1.00  0.00     0.131 HD
BRANCH   9  11
HETATM   11  C4  BES   501      35.309  13.565 194.472  1.00  0.00     0.169 C 
BRANCH  11  12
HETATM   12  C13 BES   501      35.333  14.225 195.854  1.00  0.00     0.089 C 
BRANCH  12  13
HETATM   13  C7  BES   501      33.899  14.443 196.373  1.00  0.00     0.031 A 
HETATM   14  C21 BES   501      32.739  15.084 195.587  1.00  0.00     0.143 A 
HETATM   15  N22 BES   501      31.498  15.096 196.497  1.00  0.00    -0.254 N 
HETATM   16  C23 BES   501      31.889  14.464 197.846  1.00  0.00     0.209 A 
HETATM   17  N24 BES   501      33.373  14.060 197.768  1.00  0.00    -0.348 N 
HETATM   18  C1  BES   501      34.178  13.400 198.876  1.00  0.00     0.157 C 
ENDBRANCH  12  13
ENDBRANCH  11  12
BRANCH  11  19
HETATM   19  C5  BES   501      35.906  14.510 193.482  1.00  0.00     0.192 C 
HETATM   20  O1  BES   501      37.118  14.383 193.157  1.00  0.00    -0.647 OA
HETATM   21  O4  BES   501      35.135  15.384 192.974  1.00  0.00    -0.647 OA
ENDBRANCH  11  19
ENDBRANCH   9  11
ENDBRANCH   6   7
ENDBRANCH   5   6
ENDBRANCH   1   5
TORSDOF 7
ENDMDL
MODEL 6
REMARK VINA RESULT:    -1.964      4.257      8.031
REMARK INTER + INTRA:          -6.741
REMARK INTER:                  -3.564
REMARK INTRA:                  -3.177
REMARK UNBOUND:                -2.997
REMARK  10 active torsions:
REMARK  status: ('A' for Active; 'I' for Inactive)
REMARK    1  A    between atoms: N2_1  and  C1_2 
REMARK    2  A    between atoms: C1_2  and  C6_3 
REMARK    3  A    between atoms: C1_2  and  C2_10 
REMARK    4  A    between atoms: C6_3  and  C7_4 
REMARK    5  A    between atoms: C2_10  and  O2_11 
REMARK    6  A    between atoms: C2_10  and  C3_12 
REMARK       I    between atoms: C3_12  and  N1_14 
REMARK    7  A    between atoms: N1_14  and  C4_15 
REMARK    8  A    between atoms: C4_15  and  C13_16 
REMARK    9  A    between atoms: C4_15  and  C5_20 
REMARK   10  A    between atoms: C13_16  and  C14_17 
ROOT
HETATM    1  N2  BES   501      40.770  17.362 199.644  1.00  0.00    -0.423 N 
HETATM    2  H1  BES   501      40.670  18.426 199.592  1.00  0.00     0.150 HD
HETATM    3  H2  BES   501      39.926  16.758 199.903  1.00  0.00     0.150 HD
ENDROOT
BRANCH   1   4
HETATM    4  C1  BES   501      42.038  16.746 199.368  1.00  0.00     0.116 C 
BRANCH   4   5
HETATM    5  C6  BES   501      42.836  16.226 200.568  1.00  0.00     0.066 C 
BRANCH   5   6
HETATM    6  C7  BES   501      42.991  14.697 200.596  1.00  0.00    -0.056 A 
HETATM    7  C8  BES   501      43.966  14.069 201.403  1.00  0.00     0.007 A 
HETATM    8  C9  BES   501      44.081  12.661 201.412  1.00  0.00     0.001 A 
HETATM    9  C10 BES   501      43.226  11.886 200.635  1.00  0.00     0.000 A 
HETATM   10  C11 BES   501      42.250  12.511 199.837  1.00  0.00     0.001 A 
HETATM   11  C12 BES   501      42.134  13.918 199.827  1.00  0.00     0.007 A 
ENDBRANCH   5   6
ENDBRANCH   4   5
BRANCH   4  12
HETATM   12  C2  BES   501      42.882  17.799 198.718  1.00  0.00     0.232 C 
BRANCH  12  13
HETATM   13  O2  BES   501      42.097  18.506 197.848  1.00  0.00    -0.384 OA
HETATM   14  H12 BES   501      42.530  18.489 196.892  1.00  0.00     0.210 HD
ENDBRANCH  12  13
BRANCH  12  15
HETATM   15  C3  BES   501      44.005  17.137 197.973  1.00  0.00     0.249 C 
HETATM   16  O3  BES   501      45.114  17.604 198.106  1.00  0.00    -0.271 OA
HETATM   17  N1  BES   501      43.714  15.969 197.131  1.00  0.00    -0.344 N 
HETATM   18  H23 BES   501      42.701  15.625 197.089  1.00  0.00     0.163 HD
BRANCH  17  19
HETATM   19  C4  BES   501      44.712  15.242 196.347  1.00  0.00     0.185 C 
BRANCH  19  20
HETATM   20  C13 BES   501      44.645  13.749 196.685  1.00  0.00     0.040 C 
BRANCH  20  21
HETATM   21  C14 BES   501      45.392  13.462 197.972  1.00  0.00    -0.020 C 
HETATM   22  C15 BES   501      45.772  11.981 198.012  1.00  0.00     0.009 C 
HETATM   23  C16 BES   501      46.618  14.311 198.085  1.00  0.00     0.009 C 
ENDBRANCH  20  21
ENDBRANCH  19  20
BRANCH  19  24
HETATM   24  C5  BES   501      44.364  15.418 194.905  1.00  0.00     0.196 C 
HETATM   25  O1  BES   501      44.780  16.436 194.287  1.00  0.00    -0.646 OA
HETATM   26  O4  BES   501      43.696  14.490 194.350  1.00  0.00    -0.646 OA
ENDBRANCH  19  24
ENDBRANCH  17  19
ENDBRANCH  12  15
ENDBRANCH   4  12
ENDBRANCH   1   4
TORSDOF 10
REMARK  7 active torsions:
REMARK  status: ('A' for Active; 'I' for Inactive)
REMARK    1  A    between atoms: N2_1  and  C1_2 
REMARK    2  A    between atoms: C1_2  and  C2_3 
REMARK    3  A    between atoms: C2_3  and  C3_4 
REMARK       I    between atoms: C3_4  and  N1_6 
REMARK    4  A    between atoms: N1_6  and  C4_7 
REMARK    5  A    between atoms: C4_7  and  C13_8 
REMARK    6  A    between atoms: C4_7  and  C5_10 
REMARK    7  A    between atoms: C13_8  and  C7_9 
ROOT
HETATM    1  N2  BES   501      42.093  12.233 193.111  1.00  0.00    -0.079 N 
HETATM    2  H1  BES   501      42.956  11.600 193.106  1.00  0.00     0.274 HD
HETATM    3  H2  BES   501      41.228  11.652 193.351  1.00  0.00     0.274 HD
HETATM    4  H1  BES   501      42.221  13.002 193.845  1.00  0.00     0.274 HD
ENDROOT
BRANCH   1   5
HETATM    5  C1  BES   501      41.922  12.846 191.780  1.00  0.00     0.238 C 
BRANCH   5   6
HETATM    6  C2  BES   501      40.862  13.903 191.748  1.00  0.00     0.123 C 
BRANCH   6   7
HETATM    7  C3  BES   501      40.176  13.947 193.083  1.00  0.00     0.199 C 
HETATM    8  O3  BES   501      39.200  13.247 193.231  1.00  0.00    -0.280 OA
HETATM    9  N1  BES   501      40.714  14.820 194.135  1.00  0.00    -0.248 NA
HETATM   10  H7  BES   501      40.718  15.806 193.718  1.00  0.00     0.131 HD
BRANCH   9  11
HETATM   11  C4  BES   501      40.136  14.962 195.472  1.00  0.00     0.169 C 
BRANCH  11  12
HETATM   12  C13 BES   501      40.843  14.011 196.442  1.00  0.00     0.089 C 
BRANCH  12  13
HETATM   13  C7  BES   501      39.896  12.874 196.869  1.00  0.00     0.031 A 
HETATM   14  C21 BES   501      39.838  11.463 196.252  1.00  0.00     0.143 A 
HETATM   15  N22 BES   501      38.747  10.667 196.989  1.00  0.00    -0.254 N 
HETATM   16  C23 BES   501      38.129  11.583 198.062  1.00  0.00     0.209 A 
HETATM   17  N24 BES   501      38.840  12.947 197.987  1.00  0.00    -0.348 N 
HETATM   18  C1  BES   501      38.550  14.155 198.864  1.00  0.00     0.157 C 
ENDBRANCH  12  13
ENDBRANCH  11  12
BRANCH  11  19
HETATM   19  C5  BES   501      40.381  16.366 195.919  1.00  0.00     0.192 C 
HETATM   20  O1  BES   501      39.651  16.866 196.819  1.00  0.00    -0.647 OA
HETATM   21  O4  BES   501      41.358  16.983 195.391  1.00  0.00    -0.647 OA
ENDBRANCH  11  19
ENDBRANCH   9  11
ENDBRANCH   6   7
ENDBRANCH   5   6
ENDBRANCH   1   5
TORSDOF 7
ENDMDL
MODEL 7
REMARK VINA RESULT:    -1.955      4.786      8.477
REMARK INTER + INTRA:          -6.725
REMARK INTER:                  -3.725
REMARK INTRA:                  -2.999
REMARK UNBOUND:                -2.997
REMARK  10 active torsions:
REMARK  status: ('A' for Active; 'I' for Inactive)
REMARK    1  A    between atoms: N2_1  and  C1_2 
REMARK    2  A    between atoms: C1_2  and  C6_3 
REMARK    3  A    between atoms: C1_2  and  C2_10 
REMARK    4  A    between atoms: C6_3  and  C7_4 
REMARK    5  A    between atoms: C2_10  and  O2_11 
REMARK    6  A    between atoms: C2_10  and  C3_12 
REMARK       I    between atoms: C3_12  and  N1_14 
REMARK    7  A    between atoms: N1_14  and  C4_15 
REMARK    8  A    between atoms: C4_15  and  C13_16 
REMARK    9  A    between atoms: C4_15  and  C5_20 
REMARK   10  A    between atoms: C13_16  and  C14_17 
ROOT
HETATM    1  N2  BES   501      42.062  15.333 189.747  1.00  0.00    -0.423 N 
HETATM    2  H1  BES   501      41.818  14.426 189.233  1.00  0.00     0.150 HD
HETATM    3  H2  BES   501      43.040  15.467 190.161  1.00  0.00     0.150 HD
ENDROOT
BRANCH   1   4
HETATM    4  C1  BES   501      41.076  16.370 189.882  1.00  0.00     0.116 C 
BRANCH   4   5
HETATM    5  C6  BES   501      40.002  16.456 188.793  1.00  0.00     0.066 C 
BRANCH   5   6
HETATM    6  C7  BES   501      38.569  16.559 189.340  1.00  0.00    -0.056 A 
HETATM    7  C8  BES   501      38.096  15.680 190.340  1.00  0.00     0.007 A 
HETATM    8  C9  BES   501      36.776  15.803 190.826  1.00  0.00     0.001 A 
HETATM    9  C10 BES   501      35.939  16.798 190.331  1.00  0.00     0.000 A 
HETATM   10  C11 BES   501      36.412  17.677 189.340  1.00  0.00     0.001 A 
HETATM   11  C12 BES   501      37.732  17.556 188.853  1.00  0.00     0.007 A 
ENDBRANCH   5   6
ENDBRANCH   4   5
BRANCH   4  12
HETATM   12  C2  BES   501      41.826  17.666 189.845  1.00  0.00     0.232 C 
BRANCH  12  13
HETATM   13  O2  BES   501      43.044  17.478 190.443  1.00  0.00    -0.384 OA
HETATM   14  H12 BES   501      43.749  18.124 190.010  1.00  0.00     0.210 HD
ENDBRANCH  12  13
BRANCH  12  15
HETATM   15  C3  BES   501      41.044  18.706 190.594  1.00  0.00     0.249 C 
HETATM   16  O3  BES   501      41.018  19.824 190.130  1.00  0.00    -0.271 OA
HETATM   17  N1  BES   501      40.353  18.328 191.834  1.00  0.00    -0.344 N 
HETATM   18  H23 BES   501      40.427  17.309 192.155  1.00  0.00     0.163 HD
BRANCH  17  19
HETATM   19  C4  BES   501      39.570  19.244 192.661  1.00  0.00     0.185 C 
BRANCH  19  20
HETATM   20  C13 BES   501      38.170  18.663 192.890  1.00  0.00     0.040 C 
BRANCH  20  21
HETATM   21  C14 BES   501      37.107  19.642 192.435  1.00  0.00    -0.020 C 
HETATM   22  C15 BES   501      36.591  20.422 193.646  1.00  0.00     0.009 C 
HETATM   23  C16 BES   501      37.646  20.585 191.406  1.00  0.00     0.009 C 
ENDBRANCH  20  21
ENDBRANCH  19  20
BRANCH  19  24
HETATM   24  C5  BES   501      40.258  19.358 193.981  1.00  0.00     0.196 C 
HETATM   25  O1  BES   501      41.222  20.162 194.109  1.00  0.00    -0.646 OA
HETATM   26  O4  BES   501      39.799  18.662 194.940  1.00  0.00    -0.646 OA
ENDBRANCH  19  24
ENDBRANCH  17  19
ENDBRANCH  12  15
ENDBRANCH   4  12
ENDBRANCH   1   4
TORSDOF 10
REMARK  7 active torsions:
REMARK  status: ('A' for Active; 'I' for Inactive)
REMARK    1  A    between atoms: N2_1  and  C1_2 
REMARK    2  A    between atoms: C1_2  and  C2_3 
REMARK    3  A    between atoms: C2_3  and  C3_4 
REMARK       I    between atoms: C3_4  and  N1_6 
REMARK    4  A    between atoms: N1_6  and  C4_7 
REMARK    5  A    between atoms: C4_7  and  C13_8 
REMARK    6  A    between atoms: C4_7  and  C5_10 
REMARK    7  A    between atoms: C13_8  and  C7_9 
ROOT
HETATM    1  N2  BES   501      42.894  18.381 196.056  1.00  0.00    -0.079 N 
HETATM    2  H1  BES   501      43.800  17.810 196.043  1.00  0.00     0.274 HD
HETATM    3  H2  BES   501      43.116  19.406 195.843  1.00  0.00     0.274 HD
HETATM    4  H1  BES   501      42.223  18.000 195.315  1.00  0.00     0.274 HD
ENDROOT
BRANCH   1   5
HETATM    5  C1  BES   501      42.267  18.278 197.389  1.00  0.00     0.238 C 
BRANCH   5   6
HETATM    6  C2  BES   501      41.631  16.946 197.641  1.00  0.00     0.123 C 
BRANCH   6   7
HETATM    7  C3  BES   501      41.992  16.013 196.521  1.00  0.00     0.199 C 
HETATM    8  O3  BES   501      42.919  15.256 196.705  1.00  0.00    -0.280 OA
HETATM    9  N1  BES   501      41.215  16.055 195.275  1.00  0.00    -0.248 NA
HETATM   10  H7  BES   501      41.292  17.062 194.921  1.00  0.00     0.131 HD
BRANCH   9  11
HETATM   11  C4  BES   501      41.470  15.209 194.109  1.00  0.00     0.169 C 
BRANCH  11  12
HETATM   12  C13 BES   501      40.205  15.124 193.249  1.00  0.00     0.089 C 
BRANCH  12  13
HETATM   13  C7  BES   501      39.886  13.658 192.901  1.00  0.00     0.031 A 
HETATM   14  C21 BES   501      40.831  12.669 192.194  1.00  0.00     0.143 A 
HETATM   15  N22 BES   501      40.095  11.324 192.055  1.00  0.00    -0.254 N 
HETATM   16  C23 BES   501      38.694  11.481 192.677  1.00  0.00     0.209 A 
HETATM   17  N24 BES   501      38.566  12.924 193.200  1.00  0.00    -0.348 N 
HETATM   18  C1  BES   501      37.349  13.519 193.890  1.00  0.00     0.157 C 
ENDBRANCH  12  13
ENDBRANCH  11  12
BRANCH  11  19
HETATM   19  C5  BES   501      42.548  15.863 193.308  1.00  0.00     0.192 C 
HETATM   20  O1  BES   501      43.278  15.157 192.560  1.00  0.00    -0.647 OA
HETATM   21  O4  BES   501      42.648  17.127 193.389  1.00  0.00    -0.647 OA
ENDBRANCH  11  19
ENDBRANCH   9  11
ENDBRANCH   6   7
ENDBRANCH   5   6
ENDBRANCH   1   5
TORSDOF 7
ENDMDL
MODEL 8
REMARK VINA RESULT:    -1.931      4.084      8.334
REMARK INTER + INTRA:          -6.677
REMARK INTER:                  -3.546
REMARK INTRA:                  -3.131
REMARK UNBOUND:                -2.997
REMARK  10 active torsions:
REMARK  status: ('A' for Active; 'I' for Inactive)
REMARK    1  A    between atoms: N2_1  and  C1_2 
REMARK    2  A    between atoms: C1_2  and  C6_3 
REMARK    3  A    between atoms: C1_2  and  C2_10 
REMARK    4  A    between atoms: C6_3  and  C7_4 
REMARK    5  A    between atoms: C2_10  and  O2_11 
REMARK    6  A    between atoms: C2_10  and  C3_12 
REMARK       I    between atoms: C3_12  and  N1_14 
REMARK    7  A    between atoms: N1_14  and  C4_15 
REMARK    8  A    between atoms: C4_15  and  C13_16 
REMARK    9  A    between atoms: C4_15  and  C5_20 
REMARK   10  A    between atoms: C13_16  and  C14_17 
ROOT
HETATM    1  N2  BES   501      38.538  17.155 200.881  1.00  0.00    -0.423 N 
HETATM    2  H1  BES   501      39.391  17.609 201.341  1.00  0.00     0.150 HD
HETATM    3  H2  BES   501      38.049  17.641 200.062  1.00  0.00     0.150 HD
ENDROOT
BRANCH   1   4
HETATM    4  C1  BES   501      38.048  15.893 201.364  1.00  0.00     0.116 C 
BRANCH   4   5
HETATM    5  C6  BES   501      37.521  15.854 202.802  1.00  0.00     0.066 C 
BRANCH   5   6
HETATM    6  C7  BES   501      36.083  15.323 202.923  1.00  0.00    -0.056 A 
HETATM    7  C8  BES   501      35.139  15.506 201.887  1.00  0.00     0.007 A 
HETATM    8  C9  BES   501      33.827  15.003 202.026  1.00  0.00     0.001 A 
HETATM    9  C10 BES   501      33.461  14.314 203.178  1.00  0.00     0.000 A 
HETATM   10  C11 BES   501      34.403  14.126 204.206  1.00  0.00     0.001 A 
HETATM   11  C12 BES   501      35.716  14.628 204.069  1.00  0.00     0.007 A 
ENDBRANCH   5   6
ENDBRANCH   4   5
BRANCH   4  12
HETATM   12  C2  BES   501      39.207  14.946 201.309  1.00  0.00     0.232 C 
BRANCH  12  13
HETATM   13  O2  BES   501      39.923  15.205 200.171  1.00  0.00    -0.384 OA
HETATM   14  H12 BES   501      39.558  16.077 199.718  1.00  0.00     0.210 HD
ENDBRANCH  12  13
BRANCH  12  15
HETATM   15  C3  BES   501      38.688  13.538 201.278  1.00  0.00     0.249 C 
HETATM   16  O3  BES   501      39.217  12.733 202.013  1.00  0.00    -0.271 OA
HETATM   17  N1  BES   501      37.580  13.203 200.374  1.00  0.00    -0.344 N 
HETATM   18  H23 BES   501      37.173  13.989 199.772  1.00  0.00     0.163 HD
BRANCH  17  19
HETATM   19  C4  BES   501      36.992  11.871 200.240  1.00  0.00     0.185 C 
BRANCH  19  20
HETATM   20  C13 BES   501      35.530  11.905 200.700  1.00  0.00     0.040 C 
BRANCH  20  21
HETATM   21  C14 BES   501      35.276  10.835 201.742  1.00  0.00    -0.020 C 
HETATM   22  C15 BES   501      36.168  11.094 202.957  1.00  0.00     0.009 C 
HETATM   23  C16 BES   501      33.838  10.813 202.154  1.00  0.00     0.009 C 
ENDBRANCH  20  21
ENDBRANCH  19  20
BRANCH  19  24
HETATM   24  C5  BES   501      37.025  11.509 198.792  1.00  0.00     0.196 C 
HETATM   25  O1  BES   501      35.992  11.678 198.087  1.00  0.00    -0.646 OA
HETATM   26  O4  BES   501      38.128  11.086 198.322  1.00  0.00    -0.646 OA
ENDBRANCH  19  24
ENDBRANCH  17  19
ENDBRANCH  12  15
ENDBRANCH   4  12
ENDBRANCH   1   4
TORSDOF 10
REMARK  7 active torsions:
REMARK  status: ('A' for Active; 'I' for Inactive)
REMARK    1  A    between atoms: N2_1  and  C1_2 
REMARK    2  A    between atoms: C1_2  and  C2_3 
REMARK    3  A    between atoms: C2_3  and  C3_4 
REMARK       I    between atoms: C3_4  and  N1_6 
REMARK    4  A    between atoms: N1_6  and  C4_7 
REMARK    5  A    between atoms: C4_7  and  C13_8 
REMARK    6  A    between atoms: C4_7  and  C5_10 
REMARK    7  A    between atoms: C13_8  and  C7_9 
ROOT
HETATM    1  N2  BES   501      33.834  12.249 196.083  1.00  0.00    -0.079 N 
HETATM    2  H1  BES   501      32.851  11.831 196.162  1.00  0.00     0.274 HD
HETATM    3  H2  BES   501      33.763  13.315 196.025  1.00  0.00     0.274 HD
HETATM    4  H1  BES   501      34.406  11.976 196.944  1.00  0.00     0.274 HD
ENDROOT
BRANCH   1   5
HETATM    5  C1  BES   501      34.493  11.731 194.868  1.00  0.00     0.238 C 
BRANCH   5   6
HETATM    6  C2  BES   501      35.544  12.652 194.328  1.00  0.00     0.123 C 
BRANCH   6   7
HETATM    7  C3  BES   501      35.495  13.946 195.088  1.00  0.00     0.199 C 
HETATM    8  O3  BES   501      34.746  14.804 194.679  1.00  0.00    -0.280 OA
HETATM    9  N1  BES   501      36.342  14.110 196.278  1.00  0.00    -0.248 NA
HETATM   10  H7  BES   501      37.345  13.946 195.942  1.00  0.00     0.131 HD
BRANCH   9  11
HETATM   11  C4  BES   501      36.397  15.320 197.097  1.00  0.00     0.169 C 
BRANCH  11  12
HETATM   12  C13 BES   501      35.469  15.165 198.307  1.00  0.00     0.089 C 
BRANCH  12  13
HETATM   13  C7  BES   501      34.277  16.134 198.201  1.00  0.00     0.031 A 
HETATM   14  C21 BES   501      32.907  15.819 197.571  1.00  0.00     0.143 A 
HETATM   15  N22 BES   501      32.030  17.078 197.686  1.00  0.00    -0.254 N 
HETATM   16  C23 BES   501      32.856  18.173 198.389  1.00  0.00     0.209 A 
HETATM   17  N24 BES   501      34.245  17.588 198.706  1.00  0.00    -0.348 N 
HETATM   18  C1  BES   501      35.385  18.319 199.398  1.00  0.00     0.157 C 
ENDBRANCH  12  13
ENDBRANCH  11  12
BRANCH  11  19
HETATM   19  C5  BES   501      37.799  15.467 197.588  1.00  0.00     0.192 C 
HETATM   20  O1  BES   501      38.221  16.606 197.927  1.00  0.00    -0.647 OA
HETATM   21  O4  BES   501      38.496  14.408 197.684  1.00  0.00    -0.647 OA
ENDBRANCH  11  19
ENDBRANCH   9  11
ENDBRANCH   6   7
ENDBRANCH   5   6
ENDBRANCH   1   5
TORSDOF 7
ENDMDL
MODEL 9
REMARK VINA RESULT:    -1.911      4.408      8.670
REMARK INTER + INTRA:          -6.641
REMARK INTER:                  -3.594
REMARK INTRA:                  -3.046
REMARK UNBOUND:                -2.997
REMARK  10 active torsions:
REMARK  status: ('A' for Active; 'I' for Inactive)
REMARK    1  A    between atoms: N2_1  and  C1_2 
REMARK    2  A    between atoms: C1_2  and  C6_3 
REMARK    3  A    between atoms: C1_2  and  C2_10 
REMARK    4  A    between atoms: C6_3  and  C7_4 
REMARK    5  A    between atoms: C2_10  and  O2_11 
REMARK    6  A    between atoms: C2_10  and  C3_12 
REMARK       I    between atoms: C3_12  and  N1_14 
REMARK    7  A    between atoms: N1_14  and  C4_15 
REMARK    8  A    between atoms: C4_15  and  C13_16 
REMARK    9  A    between atoms: C4_15  and  C5_20 
REMARK   10  A    between atoms: C13_16  and  C14_17 
ROOT
HETATM    1  N2  BES   501      37.513  13.239 201.450  1.00  0.00    -0.423 N 
HETATM    2  H1  BES   501      37.030  12.552 202.113  1.00  0.00     0.150 HD
HETATM    3  H2  BES   501      37.571  13.021 200.403  1.00  0.00     0.150 HD
ENDROOT
BRANCH   1   4
HETATM    4  C1  BES   501      38.085  14.453 201.964  1.00  0.00     0.116 C 
BRANCH   4   5
HETATM    5  C6  BES   501      38.889  14.348 203.263  1.00  0.00     0.066 C 
BRANCH   5   6
HETATM    6  C7  BES   501      40.288  14.984 203.182  1.00  0.00    -0.056 A 
HETATM    7  C8  BES   501      40.837  15.698 204.270  1.00  0.00     0.007 A 
HETATM    8  C9  BES   501      42.126  16.266 204.167  1.00  0.00     0.001 A 
HETATM    9  C10 BES   501      42.866  16.113 202.998  1.00  0.00     0.000 A 
HETATM   10  C11 BES   501      42.321  15.395 201.918  1.00  0.00     0.001 A 
HETATM   11  C12 BES   501      41.032  14.827 202.019  1.00  0.00     0.007 A 
ENDBRANCH   5   6
ENDBRANCH   4   5
BRANCH   4  12
HETATM   12  C2  BES   501      36.935  15.370 202.246  1.00  0.00     0.232 C 
BRANCH  12  13
HETATM   13  O2  BES   501      35.967  15.152 201.303  1.00  0.00    -0.384 OA
HETATM   14  H12 BES   501      36.218  15.659 200.420  1.00  0.00     0.210 HD
ENDBRANCH  12  13
BRANCH  12  15
HETATM   15  C3  BES   501      37.412  16.791 202.173  1.00  0.00     0.249 C 
HETATM   16  O3  BES   501      36.998  17.562 203.010  1.00  0.00    -0.271 OA
HETATM   17  N1  BES   501      38.344  17.179 201.106  1.00  0.00    -0.344 N 
HETATM   18  H23 BES   501      38.661  16.420 200.420  1.00  0.00     0.163 HD
BRANCH  17  19
HETATM   19  C4  BES   501      38.874  18.529 200.917  1.00  0.00     0.185 C 
BRANCH  19  20
HETATM   20  C13 BES   501      40.398  18.468 200.767  1.00  0.00     0.040 C 
BRANCH  20  21
HETATM   21  C14 BES   501      41.076  19.104 201.964  1.00  0.00    -0.020 C 
HETATM   22  C15 BES   501      41.827  20.356 201.509  1.00  0.00     0.009 C 
HETATM   23  C16 BES   501      40.081  19.457 203.023  1.00  0.00     0.009 C 
ENDBRANCH  20  21
ENDBRANCH  19  20
BRANCH  19  24
HETATM   24  C5  BES   501      38.294  19.065 199.650  1.00  0.00     0.196 C 
HETATM   25  O1  BES   501      37.070  19.368 199.609  1.00  0.00    -0.646 OA
HETATM   26  O4  BES   501      39.088  19.238 198.673  1.00  0.00    -0.646 OA
ENDBRANCH  19  24
ENDBRANCH  17  19
ENDBRANCH  12  15
ENDBRANCH   4  12
ENDBRANCH   1   4
TORSDOF 10
REMARK  7 active torsions:
REMARK  status: ('A' for Active; 'I' for Inactive)
REMARK    1  A    between atoms: N2_1  and  C1_2 
REMARK    2  A    between atoms: C1_2  and  C2_3 
REMARK    3  A    between atoms: C2_3  and  C3_4 
REMARK       I    between atoms: C3_4  and  N1_6 
REMARK    4  A    between atoms: N1_6  and  C4_7 
REMARK    5  A    between atoms: C4_7  and  C13_8 
REMARK    6  A    between atoms: C4_7  and  C5_10 
REMARK    7  A    between atoms: C13_8  and  C7_9 
ROOT
HETATM    1  N2  BES   501      36.088  18.388 196.798  1.00  0.00    -0.079 N 
HETATM    2  H1  BES   501      36.669  18.160 197.667  1.00  0.00     0.274 HD
HETATM    3  H2  BES   501      35.822  17.479 196.299  1.00  0.00     0.274 HD
HETATM    4  H1  BES   501      35.199  18.906 197.090  1.00  0.00     0.274 HD
ENDROOT
BRANCH   1   5
HETATM    5  C1  BES   501      36.877  19.238 195.886  1.00  0.00     0.238 C 
BRANCH   5   6
HETATM    6  C2  BES   501      38.086  18.548 195.334  1.00  0.00     0.123 C 
BRANCH   6   7
HETATM    7  C3  BES   501      38.056  17.105 195.747  1.00  0.00     0.199 C 
HETATM    8  O3  BES   501      37.571  16.313 194.970  1.00  0.00    -0.280 OA
HETATM    9  N1  BES   501      38.612  16.722 197.052  1.00  0.00    -0.248 NA
HETATM   10  H7  BES   501      38.072  17.298 197.775  1.00  0.00     0.131 HD
BRANCH   9  11
HETATM   11  C4  BES   501      38.634  15.356 197.576  1.00  0.00     0.169 C 
BRANCH  11  12
HETATM   12  C13 BES   501      39.798  15.202 198.560  1.00  0.00     0.089 C 
BRANCH  12  13
HETATM   13  C7  BES   501      40.524  13.863 198.333  1.00  0.00     0.031 A 
HETATM   14  C21 BES   501      40.296  12.563 199.128  1.00  0.00     0.143 A 
HETATM   15  N22 BES   501      41.236  11.486 198.557  1.00  0.00    -0.254 N 
HETATM   16  C23 BES   501      42.045  12.118 197.409  1.00  0.00     0.209 A 
HETATM   17  N24 BES   501      41.604  13.588 197.271  1.00  0.00    -0.348 N 
HETATM   18  C1  BES   501      42.142  14.591 196.262  1.00  0.00     0.157 C 
ENDBRANCH  12  13
ENDBRANCH  11  12
BRANCH  11  19
HETATM   19  C5  BES   501      37.355  15.138 198.315  1.00  0.00     0.192 C 
HETATM   20  O1  BES   501      36.980  13.961 198.571  1.00  0.00    -0.647 OA
HETATM   21  O4  BES   501      36.718  16.171 198.694  1.00  0.00    -0.647 OA
ENDBRANCH  11  19
ENDBRANCH   9  11
ENDBRANCH   6   7
ENDBRANCH   5   6
ENDBRANCH   1   5
TORSDOF 7
ENDMDL
