MODEL 1
REMARK VINA RESULT:    -2.061      0.000      0.000
REMARK INTER + INTRA:          -6.221
REMARK INTER:                  -3.929
REMARK INTRA:                  -2.292
REMARK UNBOUND:                -2.292
REMARK  9 active torsions:
REMARK  status: ('A' for Active; 'I' for Inactive)
REMARK    1  A    between atoms: C70_1  and  C1_2 
REMARK    2  A    between atoms: C70_1  and  N12_20 
REMARK    3  A    between atoms: C1_2  and  C2_3 
REMARK    4  A    between atoms: C2_3  and  C3_4 
REMARK    5  A    between atoms: C2_3  and  O5_17 
REMARK       I    between atoms: C3_4  and  N1_6 
REMARK    6  A    between atoms: N1_6  and  C4_7 
REMARK    7  A    between atoms: C4_7  and  C13_8 
REMARK    8  A    between atoms: C4_7  and  C5_10 
REMARK    9  A    between atoms: C13_8  and  C7_9 
ROOT
HETATM    1  C70 BES A 501      40.171  18.556 199.867  1.00  6.08     0.232 C 
ENDROOT
BRANCH   1   2
HETATM    2  C1  BES A 501      39.443  18.449 201.069  1.00  6.71     0.068 C 
BRANCH   2   3
HETATM    3  C2  BES A 501      38.525  19.577 201.420  1.00  9.09     0.205 C 
BRANCH   3   4
HETATM    4  C3  BES A 501      37.381  19.042 202.233  1.00  8.29     0.227 C 
HETATM    5  O3  BES A 501      37.518  17.949 202.735  1.00  7.85    -0.277 OA
HETATM    6  N1  BES A 501      36.168  19.858 202.386  1.00  8.97    -0.246 NA
HETATM    7  H7  BES A 501      35.822  20.049 201.391  1.00  8.27     0.131 HD
BRANCH   6   8
HETATM    8  C4  BES A 501      34.983  19.449 203.141  1.00 10.85     0.169 C 
BRANCH   8   9
HETATM    9  C13 BES A 501      34.907  20.243 204.448  1.00  8.22     0.089 C 
BRANCH   9  10
HETATM   10  C7  BES A 501      35.651  21.585 204.309  1.00 11.21     0.029 A 
HETATM   11  C21 BES A 501      34.998  22.962 204.081  1.00  0.00     0.143 A 
HETATM   12  N22 BES A 501      36.120  24.013 204.004  1.00  0.00    -0.254 N 
HETATM   13  C23 BES A 501      37.467  23.287 204.184  1.00  0.00     0.207 A 
HETATM   14  N24 BES A 501      37.176  21.786 204.372  1.00  0.00    -0.353 N 
HETATM   15  H13 BES A 501      37.906  21.018 204.521  1.00  8.23     0.166 HD
ENDBRANCH   9  10
ENDBRANCH   8   9
BRANCH   8  16
HETATM   16  C5  BES A 501      33.786  19.783 202.312  1.00 10.09     0.192 C 
HETATM   17  O1  BES A 501      32.679  19.238 202.577  1.00  5.58    -0.647 OA
HETATM   18  O4  BES A 501      33.936  20.648 201.395  1.00  5.29    -0.647 OA
ENDBRANCH   8  16
ENDBRANCH   6   8
ENDBRANCH   3   4
BRANCH   3  19
HETATM   19  O5  BES A 501      39.271  20.604 202.219  1.00  8.27    -0.387 OA
HETATM   20  H15 BES A 501      39.081  20.457 203.242  1.00  8.22     0.210 HD
ENDBRANCH   3  19
ENDBRANCH   2   3
ENDBRANCH   1   2
BRANCH   1  21
HETATM   21  N12 BES A 501      39.865  19.890 199.206  1.00  8.22    -0.079 N 
HETATM   22  H14 BES A 501      38.878  19.866 198.794  1.00  8.22     0.274 HD
HETATM   23  H15 BES A 501      40.572  20.073 198.425  1.00  8.22     0.274 HD
HETATM   24  H1  BES A 501      39.927  20.672 199.933  1.00  8.22     0.274 HD
ENDBRANCH   1  21
TORSDOF 9
REMARK  8 active torsions:
REMARK  status: ('A' for Active; 'I' for Inactive)
REMARK    1  A    between atoms: C70_1  and  C1_2 
REMARK    2  A    between atoms: C70_1  and  N12_19 
REMARK    3  A    between atoms: C1_2  and  C2_3 
REMARK    4  A    between atoms: C2_3  and  C3_4 
REMARK       I    between atoms: C3_4  and  N1_6 
REMARK    5  A    between atoms: N1_6  and  C4_7 
REMARK    6  A    between atoms: C4_7  and  C13_8 
REMARK    7  A    between atoms: C4_7  and  C5_10 
REMARK    8  A    between atoms: C13_8  and  C7_9 
ROOT
HETATM    1  C70 BES A 501      32.702  17.907 199.173  1.00  6.08     0.230 C 
ENDROOT
BRANCH   1   2
HETATM    2  C1  BES A 501      33.821  18.558 198.616  1.00  6.71     0.036 C 
BRANCH   2   3
HETATM    3  C2  BES A 501      35.165  18.219 199.180  1.00  9.09     0.098 C 
BRANCH   3   4
HETATM    4  C3  BES A 501      36.160  19.247 198.724  1.00  8.29     0.198 C 
HETATM    5  O3  BES A 501      37.108  18.859 198.080  1.00  7.85    -0.280 OA
HETATM    6  N1  BES A 501      35.939  20.659 199.069  1.00  8.97    -0.248 NA
HETATM    7  H7  BES A 501      35.880  20.688 200.137  1.00  8.27     0.131 HD
BRANCH   6   8
HETATM    8  C4  BES A 501      36.835  21.754 198.696  1.00 10.85     0.169 C 
BRANCH   8   9
HETATM    9  C13 BES A 501      36.066  22.787 197.867  1.00  8.22     0.089 C 
BRANCH   9  10
HETATM   10  C7  BES A 501      34.548  22.540 197.968  1.00 11.21     0.029 A 
HETATM   11  C21 BES A 501      33.631  22.062 196.827  1.00  0.00     0.143 A 
HETATM   12  N22 BES A 501      32.199  21.954 197.383  1.00  0.00    -0.254 N 
HETATM   13  C23 BES A 501      32.230  22.367 198.866  1.00  0.00     0.207 A 
HETATM   14  N24 BES A 501      33.683  22.729 199.228  1.00  0.00    -0.353 N 
HETATM   15  H13 BES A 501      34.030  23.054 200.186  1.00  8.23     0.166 HD
ENDBRANCH   9  10
ENDBRANCH   8   9
BRANCH   8  16
HETATM   16  C5  BES A 501      37.296  22.406 199.958  1.00 10.09     0.192 C 
HETATM   17  O1  BES A 501      38.507  22.745 200.073  1.00  5.58    -0.647 OA
HETATM   18  O4  BES A 501      36.421  22.632 200.850  1.00  5.29    -0.647 OA
ENDBRANCH   8  16
ENDBRANCH   6   8
ENDBRANCH   3   4
ENDBRANCH   2   3
ENDBRANCH   1   2
BRANCH   1  19
HETATM   19  N12 BES A 501      31.709  18.944 199.674  1.00  8.22    -0.079 N 
HETATM   20  H14 BES A 501      31.174  18.550 200.512  1.00  8.22     0.274 HD
HETATM   21  H15 BES A 501      31.019  19.185 198.893  1.00  8.22     0.274 HD
HETATM   22  H6  BES A 501      32.234  19.828 199.970  1.00  8.22     0.274 HD
ENDBRANCH   1  19
TORSDOF 8
ENDMDL
MODEL 2
REMARK VINA RESULT:    -2.040      4.279      6.681
REMARK INTER + INTRA:          -6.181
REMARK INTER:                  -3.306
REMARK INTRA:                  -2.875
REMARK UNBOUND:                -2.292
REMARK  9 active torsions:
REMARK  status: ('A' for Active; 'I' for Inactive)
REMARK    1  A    between atoms: C70_1  and  C1_2 
REMARK    2  A    between atoms: C70_1  and  N12_20 
REMARK    3  A    between atoms: C1_2  and  C2_3 
REMARK    4  A    between atoms: C2_3  and  C3_4 
REMARK    5  A    between atoms: C2_3  and  O5_17 
REMARK       I    between atoms: C3_4  and  N1_6 
REMARK    6  A    between atoms: N1_6  and  C4_7 
REMARK    7  A    between atoms: C4_7  and  C13_8 
REMARK    8  A    between atoms: C4_7  and  C5_10 
REMARK    9  A    between atoms: C13_8  and  C7_9 
ROOT
HETATM    1  C70 BES A 501      35.604  20.909 196.701  1.00  6.08     0.232 C 
ENDROOT
BRANCH   1   2
HETATM    2  C1  BES A 501      36.994  21.101 196.835  1.00  6.71     0.068 C 
BRANCH   2   3
HETATM    3  C2  BES A 501      37.893  20.160 196.095  1.00  9.09     0.205 C 
BRANCH   3   4
HETATM    4  C3  BES A 501      38.607  19.287 197.086  1.00  8.29     0.227 C 
HETATM    5  O3  BES A 501      39.723  18.914 196.798  1.00  7.85    -0.277 OA
HETATM    6  N1  BES A 501      37.935  18.933 198.345  1.00  8.97    -0.246 NA
HETATM    7  H7  BES A 501      37.023  18.451 198.058  1.00  8.27     0.131 HD
BRANCH   6   8
HETATM    8  C4  BES A 501      38.516  18.084 199.385  1.00 10.85     0.169 C 
BRANCH   8   9
HETATM    9  C13 BES A 501      39.024  18.958 200.537  1.00  8.22     0.089 C 
BRANCH   9  10
HETATM   10  C7  BES A 501      38.427  20.375 200.443  1.00 11.21     0.029 A 
HETATM   11  C21 BES A 501      39.219  21.677 200.218  1.00  0.00     0.143 A 
HETATM   12  N22 BES A 501      38.216  22.845 200.194  1.00  0.00    -0.254 N 
HETATM   13  C23 BES A 501      36.804  22.265 200.405  1.00  0.00     0.207 A 
HETATM   14  N24 BES A 501      36.935  20.738 200.559  1.00  0.00    -0.353 N 
HETATM   15  H13 BES A 501      36.131  20.050 200.717  1.00  8.23     0.166 HD
ENDBRANCH   9  10
ENDBRANCH   8   9
BRANCH   8  16
HETATM   16  C5  BES A 501      37.428  17.201 199.903  1.00 10.09     0.192 C 
HETATM   17  O1  BES A 501      37.712  16.036 200.297  1.00  5.58    -0.647 OA
HETATM   18  O4  BES A 501      36.260  17.693 199.965  1.00  5.29    -0.647 OA
ENDBRANCH   8  16
ENDBRANCH   6   8
ENDBRANCH   3   4
BRANCH   3  19
HETATM   19  O5  BES A 501      37.076  19.306 195.172  1.00  8.27    -0.387 OA
HETATM   20  H15 BES A 501      37.716  18.768 194.536  1.00  8.22     0.210 HD
ENDBRANCH   3  19
ENDBRANCH   2   3
ENDBRANCH   1   2
BRANCH   1  21
HETATM   21  N12 BES A 501      35.151  19.807 197.646  1.00  8.22    -0.079 N 
HETATM   22  H14 BES A 501      35.774  19.804 198.515  1.00  8.22     0.274 HD
HETATM   23  H15 BES A 501      35.223  18.861 197.152  1.00  8.22     0.274 HD
HETATM   24  H1  BES A 501      34.136  19.981 197.937  1.00  8.22     0.274 HD
ENDBRANCH   1  21
TORSDOF 9
REMARK  8 active torsions:
REMARK  status: ('A' for Active; 'I' for Inactive)
REMARK    1  A    between atoms: C70_1  and  C1_2 
REMARK    2  A    between atoms: C70_1  and  N12_19 
REMARK    3  A    between atoms: C1_2  and  C2_3 
REMARK    4  A    between atoms: C2_3  and  C3_4 
REMARK       I    between atoms: C3_4  and  N1_6 
REMARK    5  A    between atoms: N1_6  and  C4_7 
REMARK    6  A    between atoms: C4_7  and  C13_8 
REMARK    7  A    between atoms: C4_7  and  C5_10 
REMARK    8  A    between atoms: C13_8  and  C7_9 
ROOT
HETATM    1  C70 BES A 501      38.365  12.449 199.523  1.00  6.08     0.230 C 
ENDROOT
BRANCH   1   2
HETATM    2  C1  BES A 501      39.153  12.724 198.387  1.00  6.71     0.036 C 
BRANCH   2   3
HETATM    3  C2  BES A 501      40.013  13.948 198.427  1.00  9.09     0.098 C 
BRANCH   3   4
HETATM    4  C3  BES A 501      39.488  14.946 197.435  1.00  8.29     0.198 C 
HETATM    5  O3  BES A 501      40.298  15.629 196.849  1.00  7.85    -0.280 OA
HETATM    6  N1  BES A 501      38.038  15.047 197.219  1.00  8.97    -0.248 NA
HETATM    7  H7  BES A 501      37.618  15.263 198.180  1.00  8.27     0.131 HD
BRANCH   6   8
HETATM    8  C4  BES A 501      37.400  15.982 196.293  1.00 10.85     0.169 C 
BRANCH   8   9
HETATM    9  C13 BES A 501      37.371  15.373 194.887  1.00  8.22     0.089 C 
BRANCH   9  10
HETATM   10  C7  BES A 501      38.200  16.229 193.911  1.00 11.21     0.029 A 
HETATM   11  C21 BES A 501      38.057  16.247 192.377  1.00  0.00     0.143 A 
HETATM   12  N22 BES A 501      39.085  17.246 191.816  1.00  0.00    -0.254 N 
HETATM   13  C23 BES A 501      39.864  17.846 193.001  1.00  0.00     0.207 A 
HETATM   14  N24 BES A 501      39.316  17.217 194.297  1.00  0.00    -0.353 N 
HETATM   15  H13 BES A 501      39.652  17.430 195.290  1.00  8.23     0.166 HD
ENDBRANCH   9  10
ENDBRANCH   8   9
BRANCH   8  16
HETATM   16  C5  BES A 501      35.992  16.180 196.753  1.00 10.09     0.192 C 
HETATM   17  O1  BES A 501      35.349  17.192 196.360  1.00  5.58    -0.647 OA
HETATM   18  O4  BES A 501      35.490  15.279 197.494  1.00  5.29    -0.647 OA
ENDBRANCH   8  16
ENDBRANCH   6   8
ENDBRANCH   3   4
ENDBRANCH   2   3
ENDBRANCH   1   2
BRANCH   1  19
HETATM   19  N12 BES A 501      37.061  13.228 199.437  1.00  8.22    -0.079 N 
HETATM   20  H14 BES A 501      36.277  12.662 199.893  1.00  8.22     0.274 HD
HETATM   21  H15 BES A 501      36.820  13.408 198.411  1.00  8.22     0.274 HD
HETATM   22  H6  BES A 501      37.170  14.162 199.947  1.00  8.22     0.274 HD
ENDBRANCH   1  19
TORSDOF 8
ENDMDL
MODEL 3
REMARK VINA RESULT:    -2.018      7.889     10.231
REMARK INTER + INTRA:          -6.138
REMARK INTER:                  -3.187
REMARK INTRA:                  -2.951
REMARK UNBOUND:                -2.292
REMARK  9 active torsions:
REMARK  status: ('A' for Active; 'I' for Inactive)
REMARK    1  A    between atoms: C70_1  and  C1_2 
REMARK    2  A    between atoms: C70_1  and  N12_20 
REMARK    3  A    between atoms: C1_2  and  C2_3 
REMARK    4  A    between atoms: C2_3  and  C3_4 
REMARK    5  A    between atoms: C2_3  and  O5_17 
REMARK       I    between atoms: C3_4  and  N1_6 
REMARK    6  A    between atoms: N1_6  and  C4_7 
REMARK    7  A    between atoms: C4_7  and  C13_8 
REMARK    8  A    between atoms: C4_7  and  C5_10 
REMARK    9  A    between atoms: C13_8  and  C7_9 
ROOT
HETATM    1  C70 BES A 501      37.907  17.109 192.745  1.00  6.08     0.232 C 
ENDROOT
BRANCH   1   2
HETATM    2  C1  BES A 501      38.080  17.267 194.135  1.00  6.71     0.068 C 
BRANCH   2   3
HETATM    3  C2  BES A 501      38.797  16.175 194.867  1.00  9.09     0.205 C 
BRANCH   3   4
HETATM    4  C3  BES A 501      37.824  15.473 195.770  1.00  8.29     0.227 C 
HETATM    5  O3  BES A 501      38.266  14.960 196.774  1.00  7.85    -0.277 OA
HETATM    6  N1  BES A 501      36.400  15.444 195.406  1.00  8.97    -0.246 NA
HETATM    7  H7  BES A 501      36.361  14.988 194.438  1.00  8.27     0.131 HD
BRANCH   6   8
HETATM    8  C4  BES A 501      35.356  14.787 196.192  1.00 10.85     0.169 C 
BRANCH   8   9
HETATM    9  C13 BES A 501      34.446  15.845 196.823  1.00  8.22     0.089 C 
BRANCH   9  10
HETATM   10  C7  BES A 501      34.631  17.204 196.123  1.00 11.21     0.029 A 
HETATM   11  C21 BES A 501      35.170  18.491 196.774  1.00  0.00     0.143 A 
HETATM   12  N22 BES A 501      35.182  19.597 195.703  1.00  0.00    -0.254 N 
HETATM   13  C23 BES A 501      34.650  18.994 194.389  1.00  0.00     0.207 A 
HETATM   14  N24 BES A 501      34.309  17.514 194.649  1.00  0.00    -0.353 N 
HETATM   15  H13 BES A 501      33.918  16.824 193.932  1.00  8.23     0.166 HD
ENDBRANCH   9  10
ENDBRANCH   8   9
BRANCH   8  16
HETATM   16  C5  BES A 501      34.542  13.959 195.252  1.00 10.09     0.192 C 
HETATM   17  O1  BES A 501      33.983  12.910 195.678  1.00  5.58    -0.647 OA
HETATM   18  O4  BES A 501      34.413  14.385 194.063  1.00  5.29    -0.647 OA
ENDBRANCH   8  16
ENDBRANCH   6   8
ENDBRANCH   3   4
BRANCH   3  19
HETATM   19  O5  BES A 501      39.363  15.196 193.882  1.00  8.27    -0.387 OA
HETATM   20  H15 BES A 501      39.055  14.225 194.137  1.00  8.22     0.210 HD
ENDBRANCH   3  19
ENDBRANCH   2   3
ENDBRANCH   1   2
BRANCH   1  21
HETATM   21  N12 BES A 501      36.712  16.207 192.481  1.00  8.22    -0.079 N 
HETATM   22  H14 BES A 501      36.184  16.038 193.396  1.00  8.22     0.274 HD
HETATM   23  H15 BES A 501      37.051  15.272 192.087  1.00  8.22     0.274 HD
HETATM   24  H1  BES A 501      36.060  16.676 191.775  1.00  8.22     0.274 HD
ENDBRANCH   1  21
TORSDOF 9
REMARK  8 active torsions:
REMARK  status: ('A' for Active; 'I' for Inactive)
REMARK    1  A    between atoms: C70_1  and  C1_2 
REMARK    2  A    between atoms: C70_1  and  N12_19 
REMARK    3  A    between atoms: C1_2  and  C2_3 
REMARK    4  A    between atoms: C2_3  and  C3_4 
REMARK       I    between atoms: C3_4  and  N1_6 
REMARK    5  A    between atoms: N1_6  and  C4_7 
REMARK    6  A    between atoms: C4_7  and  C13_8 
REMARK    7  A    between atoms: C4_7  and  C5_10 
REMARK    8  A    between atoms: C13_8  and  C7_9 
ROOT
HETATM    1  C70 BES A 501      31.332  11.592 192.465  1.00  6.08     0.230 C 
ENDROOT
BRANCH   1   2
HETATM    2  C1  BES A 501      32.038  10.382 192.613  1.00  6.71     0.036 C 
BRANCH   2   3
HETATM    3  C2  BES A 501      32.833  10.199 193.868  1.00  9.09     0.098 C 
BRANCH   3   4
HETATM    4  C3  BES A 501      34.282  10.038 193.509  1.00  8.29     0.198 C 
HETATM    5  O3  BES A 501      34.738   8.916 193.520  1.00  7.85    -0.280 OA
HETATM    6  N1  BES A 501      35.071  11.229 193.161  1.00  8.97    -0.248 NA
HETATM    7  H7  BES A 501      34.997  11.880 194.007  1.00  8.27     0.131 HD
BRANCH   6   8
HETATM    8  C4  BES A 501      36.489  11.209 192.804  1.00 10.85     0.169 C 
BRANCH   8   9
HETATM    9  C13 BES A 501      36.649  11.536 191.316  1.00  8.22     0.089 C 
BRANCH   9  10
HETATM   10  C7  BES A 501      35.360  12.170 190.760  1.00 11.21     0.029 A 
HETATM   11  C21 BES A 501      34.412  11.536 189.725  1.00  0.00     0.143 A 
HETATM   12  N22 BES A 501      33.259  12.524 189.468  1.00  0.00    -0.254 N 
HETATM   13  C23 BES A 501      33.494  13.769 190.344  1.00  0.00     0.207 A 
HETATM   14  N24 BES A 501      34.793  13.550 191.143  1.00  0.00    -0.353 N 
HETATM   15  H13 BES A 501      35.225  14.236 191.841  1.00  8.23     0.166 HD
ENDBRANCH   9  10
ENDBRANCH   8   9
BRANCH   8  16
HETATM   16  C5  BES A 501      37.166  12.277 193.600  1.00 10.09     0.192 C 
HETATM   17  O1  BES A 501      37.362  13.409 193.076  1.00  5.58    -0.647 OA
HETATM   18  O4  BES A 501      37.476  12.001 194.800  1.00  5.29    -0.647 OA
ENDBRANCH   8  16
ENDBRANCH   6   8
ENDBRANCH   3   4
ENDBRANCH   2   3
ENDBRANCH   1   2
BRANCH   1  19
HETATM   19  N12 BES A 501      31.944  12.651 193.370  1.00  8.22    -0.079 N 
HETATM   20  H14 BES A 501      31.168  13.143 193.917  1.00  8.22     0.274 HD
HETATM   21  H15 BES A 501      32.471  13.367 192.776  1.00  8.22     0.274 HD
HETATM   22  H6  BES A 501      32.623  12.186 194.054  1.00  8.22     0.274 HD
ENDBRANCH   1  19
TORSDOF 8
ENDMDL
MODEL 4
REMARK VINA RESULT:    -2.002      3.944      6.959
REMARK INTER + INTRA:          -6.109
REMARK INTER:                  -3.966
REMARK INTRA:                  -2.143
REMARK UNBOUND:                -2.292
REMARK  9 active torsions:
REMARK  status: ('A' for Active; 'I' for Inactive)
REMARK    1  A    between atoms: C70_1  and  C1_2 
REMARK    2  A    between atoms: C70_1  and  N12_20 
REMARK    3  A    between atoms: C1_2  and  C2_3 
REMARK    4  A    between atoms: C2_3  and  C3_4 
REMARK    5  A    between atoms: C2_3  and  O5_17 
REMARK       I    between atoms: C3_4  and  N1_6 
REMARK    6  A    between atoms: N1_6  and  C4_7 
REMARK    7  A    between atoms: C4_7  and  C13_8 
REMARK    8  A    between atoms: C4_7  and  C5_10 
REMARK    9  A    between atoms: C13_8  and  C7_9 
ROOT
HETATM    1  C70 BES A 501      39.100  19.835 200.877  1.00  6.08     0.232 C 
ENDROOT
BRANCH   1   2
HETATM    2  C1  BES A 501      38.757  19.856 199.510  1.00  6.71     0.068 C 
BRANCH   2   3
HETATM    3  C2  BES A 501      37.316  19.651 199.160  1.00  9.09     0.205 C 
BRANCH   3   4
HETATM    4  C3  BES A 501      37.184  18.392 198.352  1.00  8.29     0.227 C 
HETATM    5  O3  BES A 501      36.404  18.402 197.427  1.00  7.85    -0.277 OA
HETATM    6  N1  BES A 501      38.000  17.222 198.711  1.00  8.97    -0.246 NA
HETATM    7  H7  BES A 501      37.757  17.004 199.730  1.00  8.27     0.131 HD
BRANCH   6   8
HETATM    8  C4  BES A 501      37.958  15.937 198.014  1.00 10.85     0.169 C 
BRANCH   8   9
HETATM    9  C13 BES A 501      39.110  15.861 197.006  1.00  8.22     0.089 C 
BRANCH   9  10
HETATM   10  C7  BES A 501      40.160  16.949 197.303  1.00 11.21     0.029 A 
HETATM   11  C21 BES A 501      40.514  18.137 196.390  1.00  0.00     0.143 A 
HETATM   12  N22 BES A 501      41.612  18.962 197.087  1.00  0.00    -0.254 N 
HETATM   13  C23 BES A 501      41.937  18.283 198.431  1.00  0.00     0.207 A 
HETATM   14  N24 BES A 501      41.038  17.038 198.565  1.00  0.00    -0.353 N 
HETATM   15  H13 BES A 501      41.027  16.356 199.389  1.00  8.23     0.166 HD
ENDBRANCH   9  10
ENDBRANCH   8   9
BRANCH   8  16
HETATM   16  C5  BES A 501      38.152  14.866 199.037  1.00 10.09     0.192 C 
HETATM   17  O1  BES A 501      37.359  13.883 199.061  1.00  5.58    -0.647 OA
HETATM   18  O4  BES A 501      39.149  14.977 199.815  1.00  5.29    -0.647 OA
ENDBRANCH   8  16
ENDBRANCH   6   8
ENDBRANCH   3   4
BRANCH   3  19
HETATM   19  O5  BES A 501      36.505  19.529 200.415  1.00  8.27    -0.387 OA
HETATM   20  H15 BES A 501      36.729  18.620 200.890  1.00  8.22     0.210 HD
ENDBRANCH   3  19
ENDBRANCH   2   3
ENDBRANCH   1   2
BRANCH   1  21
HETATM   21  N12 BES A 501      39.243  18.394 201.342  1.00  8.22    -0.079 N 
HETATM   22  H14 BES A 501      39.766  18.371 202.274  1.00  8.22     0.274 HD
HETATM   23  H15 BES A 501      39.789  17.836 200.612  1.00  8.22     0.274 HD
HETATM   24  H1  BES A 501      38.272  17.962 201.468  1.00  8.22     0.274 HD
ENDBRANCH   1  21
TORSDOF 9
REMARK  8 active torsions:
REMARK  status: ('A' for Active; 'I' for Inactive)
REMARK    1  A    between atoms: C70_1  and  C1_2 
REMARK    2  A    between atoms: C70_1  and  N12_19 
REMARK    3  A    between atoms: C1_2  and  C2_3 
REMARK    4  A    between atoms: C2_3  and  C3_4 
REMARK       I    between atoms: C3_4  and  N1_6 
REMARK    5  A    between atoms: N1_6  and  C4_7 
REMARK    6  A    between atoms: C4_7  and  C13_8 
REMARK    7  A    between atoms: C4_7  and  C5_10 
REMARK    8  A    between atoms: C13_8  and  C7_9 
ROOT
HETATM    1  C70 BES A 501      36.882  12.568 202.550  1.00  6.08     0.230 C 
ENDROOT
BRANCH   1   2
HETATM    2  C1  BES A 501      35.940  13.616 202.529  1.00  6.71     0.036 C 
BRANCH   2   3
HETATM    3  C2  BES A 501      36.446  15.002 202.777  1.00  9.09     0.098 C 
BRANCH   3   4
HETATM    4  C3  BES A 501      36.057  15.878 201.621  1.00  8.29     0.198 C 
HETATM    5  O3  BES A 501      36.626  16.941 201.511  1.00  7.85    -0.280 OA
HETATM    6  N1  BES A 501      35.022  15.414 200.686  1.00  8.97    -0.248 NA
HETATM    7  H7  BES A 501      34.155  15.230 201.286  1.00  8.27     0.131 HD
BRANCH   6   8
HETATM    8  C4  BES A 501      34.546  16.174 199.530  1.00 10.85     0.169 C 
BRANCH   8   9
HETATM    9  C13 BES A 501      33.798  15.240 198.574  1.00  8.22     0.089 C 
BRANCH   9  10
HETATM   10  C7  BES A 501      34.450  15.260 197.179  1.00 11.21     0.029 A 
HETATM   11  C21 BES A 501      35.065  14.050 196.450  1.00  0.00     0.143 A 
HETATM   12  N22 BES A 501      35.596  14.535 195.089  1.00  0.00    -0.254 N 
HETATM   13  C23 BES A 501      35.310  16.044 194.975  1.00  0.00     0.207 A 
HETATM   14  N24 BES A 501      34.601  16.492 196.268  1.00  0.00    -0.353 N 
HETATM   15  H13 BES A 501      34.271  17.484 196.493  1.00  8.23     0.166 HD
ENDBRANCH   9  10
ENDBRANCH   8   9
BRANCH   8  16
HETATM   16  C5  BES A 501      33.590  17.204 200.034  1.00 10.09     0.192 C 
HETATM   17  O1  BES A 501      32.595  16.841 200.722  1.00  5.58    -0.647 OA
HETATM   18  O4  BES A 501      33.855  18.419 199.779  1.00  5.29    -0.647 OA
ENDBRANCH   8  16
ENDBRANCH   6   8
ENDBRANCH   3   4
ENDBRANCH   2   3
ENDBRANCH   1   2
BRANCH   1  19
HETATM   19  N12 BES A 501      38.223  13.081 202.046  1.00  8.22    -0.079 N 
HETATM   20  H14 BES A 501      38.883  13.227 202.874  1.00  8.22     0.274 HD
HETATM   21  H15 BES A 501      38.080  14.010 201.536  1.00  8.22     0.274 HD
HETATM   22  H6  BES A 501      38.648  12.367 201.373  1.00  8.22     0.274 HD
ENDBRANCH   1  19
TORSDOF 8
ENDMDL
MODEL 5
REMARK VINA RESULT:    -1.994      8.051     11.441
REMARK INTER + INTRA:          -6.093
REMARK INTER:                  -3.532
REMARK INTRA:                  -2.561
REMARK UNBOUND:                -2.292
REMARK  9 active torsions:
REMARK  status: ('A' for Active; 'I' for Inactive)
REMARK    1  A    between atoms: C70_1  and  C1_2 
REMARK    2  A    between atoms: C70_1  and  N12_20 
REMARK    3  A    between atoms: C1_2  and  C2_3 
REMARK    4  A    between atoms: C2_3  and  C3_4 
REMARK    5  A    between atoms: C2_3  and  O5_17 
REMARK       I    between atoms: C3_4  and  N1_6 
REMARK    6  A    between atoms: N1_6  and  C4_7 
REMARK    7  A    between atoms: C4_7  and  C13_8 
REMARK    8  A    between atoms: C4_7  and  C5_10 
REMARK    9  A    between atoms: C13_8  and  C7_9 
ROOT
HETATM    1  C70 BES A 501      33.249  13.454 195.019  1.00  6.08     0.232 C 
ENDROOT
BRANCH   1   2
HETATM    2  C1  BES A 501      33.313  14.580 194.174  1.00  6.71     0.068 C 
BRANCH   2   3
HETATM    3  C2  BES A 501      33.893  14.384 192.809  1.00  9.09     0.205 C 
BRANCH   3   4
HETATM    4  C3  BES A 501      35.209  15.103 192.729  1.00  8.29     0.227 C 
HETATM    5  O3  BES A 501      35.486  15.645 191.682  1.00  7.85    -0.277 OA
HETATM    6  N1  BES A 501      36.087  15.123 193.908  1.00  8.97    -0.246 NA
HETATM    7  H7  BES A 501      36.271  14.096 194.147  1.00  8.27     0.131 HD
BRANCH   6   8
HETATM    8  C4  BES A 501      37.394  15.777 193.958  1.00 10.85     0.169 C 
BRANCH   8   9
HETATM    9  C13 BES A 501      37.243  17.184 194.545  1.00  8.22     0.089 C 
BRANCH   9  10
HETATM   10  C7  BES A 501      35.906  17.314 195.298  1.00 11.21     0.029 A 
HETATM   11  C21 BES A 501      34.735  18.237 194.911  1.00  0.00     0.143 A 
HETATM   12  N22 BES A 501      33.611  18.037 195.944  1.00  0.00    -0.254 N 
HETATM   13  C23 BES A 501      34.086  16.992 196.970  1.00  0.00     0.207 A 
HETATM   14  N24 BES A 501      35.505  16.544 196.571  1.00  0.00    -0.353 N 
HETATM   15  H13 BES A 501      36.106  15.826 197.086  1.00  8.23     0.166 HD
ENDBRANCH   9  10
ENDBRANCH   8   9
BRANCH   8  16
HETATM   16  C5  BES A 501      38.264  14.973 194.869  1.00 10.09     0.192 C 
HETATM   17  O1  BES A 501      39.500  14.889 194.629  1.00  5.58    -0.647 OA
HETATM   18  O4  BES A 501      37.712  14.444 195.882  1.00  5.29    -0.647 OA
ENDBRANCH   8  16
ENDBRANCH   6   8
ENDBRANCH   3   4
BRANCH   3  19
HETATM   19  O5  BES A 501      34.105  12.921 192.557  1.00  8.27    -0.387 OA
HETATM   20  H15 BES A 501      35.126  12.738 192.394  1.00  8.22     0.210 HD
ENDBRANCH   3  19
ENDBRANCH   2   3
ENDBRANCH   1   2
BRANCH   1  21
HETATM   21  N12 BES A 501      34.590  13.263 195.711  1.00  8.22    -0.079 N 
HETATM   22  H14 BES A 501      34.989  14.216 195.985  1.00  8.22     0.274 HD
HETATM   23  H15 BES A 501      35.268  12.770 195.047  1.00  8.22     0.274 HD
HETATM   24  H1  BES A 501      34.456  12.667 196.590  1.00  8.22     0.274 HD
ENDBRANCH   1  21
TORSDOF 9
REMARK  8 active torsions:
REMARK  status: ('A' for Active; 'I' for Inactive)
REMARK    1  A    between atoms: C70_1  and  C1_2 
REMARK    2  A    between atoms: C70_1  and  N12_19 
REMARK    3  A    between atoms: C1_2  and  C2_3 
REMARK    4  A    between atoms: C2_3  and  C3_4 
REMARK       I    between atoms: C3_4  and  N1_6 
REMARK    5  A    between atoms: N1_6  and  C4_7 
REMARK    6  A    between atoms: C4_7  and  C13_8 
REMARK    7  A    between atoms: C4_7  and  C5_10 
REMARK    8  A    between atoms: C13_8  and  C7_9 
ROOT
HETATM    1  C70 BES A 501      39.970  11.513 195.799  1.00  6.08     0.230 C 
ENDROOT
BRANCH   1   2
HETATM    2  C1  BES A 501      38.630  11.079 195.769  1.00  6.71     0.036 C 
BRANCH   2   3
HETATM    3  C2  BES A 501      38.133  10.467 194.496  1.00  9.09     0.098 C 
BRANCH   3   4
HETATM    4  C3  BES A 501      37.579  11.551 193.617  1.00  8.29     0.198 C 
HETATM    5  O3  BES A 501      36.496  12.006 193.909  1.00  7.85    -0.280 OA
HETATM    6  N1  BES A 501      38.365  12.009 192.463  1.00  8.97    -0.248 NA
HETATM    7  H7  BES A 501      38.535  11.137 191.866  1.00  8.27     0.131 HD
BRANCH   6   8
HETATM    8  C4  BES A 501      37.935  13.047 191.525  1.00 10.85     0.169 C 
BRANCH   8   9
HETATM    9  C13 BES A 501      39.163  13.739 190.926  1.00  8.22     0.089 C 
BRANCH   9  10
HETATM   10  C7  BES A 501      40.458  13.066 191.421  1.00 11.21     0.029 A 
HETATM   11  C21 BES A 501      41.364  12.132 190.597  1.00  0.00     0.143 A 
HETATM   12  N22 BES A 501      42.539  11.698 191.493  1.00  0.00    -0.254 N 
HETATM   13  C23 BES A 501      42.359  12.363 192.871  1.00  0.00     0.207 A 
HETATM   14  N24 BES A 501      41.072  13.209 192.826  1.00  0.00    -0.353 N 
HETATM   15  H13 BES A 501      40.675  13.794 193.629  1.00  8.23     0.166 HD
ENDBRANCH   9  10
ENDBRANCH   8   9
BRANCH   8  16
HETATM   16  C5  BES A 501      37.185  12.373 190.423  1.00 10.09     0.192 C 
HETATM   17  O1  BES A 501      35.963  12.644 190.252  1.00  5.58    -0.647 OA
HETATM   18  O4  BES A 501      37.836  11.583 189.674  1.00  5.29    -0.647 OA
ENDBRANCH   8  16
ENDBRANCH   6   8
ENDBRANCH   3   4
ENDBRANCH   2   3
ENDBRANCH   1   2
BRANCH   1  19
HETATM   19  N12 BES A 501      40.107  12.670 196.776  1.00  8.22    -0.079 N 
HETATM   20  H14 BES A 501      41.126  12.752 197.091  1.00  8.22     0.274 HD
HETATM   21  H15 BES A 501      39.484  12.494 197.627  1.00  8.22     0.274 HD
HETATM   22  H6  BES A 501      39.809  13.579 196.297  1.00  8.22     0.274 HD
ENDBRANCH   1  19
TORSDOF 8
ENDMDL
MODEL 6
REMARK VINA RESULT:    -1.983      6.196      8.390
REMARK INTER + INTRA:          -6.072
REMARK INTER:                  -3.477
REMARK INTRA:                  -2.596
REMARK UNBOUND:                -2.292
REMARK  9 active torsions:
REMARK  status: ('A' for Active; 'I' for Inactive)
REMARK    1  A    between atoms: C70_1  and  C1_2 
REMARK    2  A    between atoms: C70_1  and  N12_20 
REMARK    3  A    between atoms: C1_2  and  C2_3 
REMARK    4  A    between atoms: C2_3  and  C3_4 
REMARK    5  A    between atoms: C2_3  and  O5_17 
REMARK       I    between atoms: C3_4  and  N1_6 
REMARK    6  A    between atoms: N1_6  and  C4_7 
REMARK    7  A    between atoms: C4_7  and  C13_8 
REMARK    8  A    between atoms: C4_7  and  C5_10 
REMARK    9  A    between atoms: C13_8  and  C7_9 
ROOT
HETATM    1  C70 BES A 501      36.139  10.653 198.294  1.00  6.08     0.232 C 
ENDROOT
BRANCH   1   2
HETATM    2  C1  BES A 501      35.337  11.591 198.974  1.00  6.71     0.068 C 
BRANCH   2   3
HETATM    3  C2  BES A 501      34.531  12.539 198.141  1.00  9.09     0.205 C 
BRANCH   3   4
HETATM    4  C3  BES A 501      34.957  13.945 198.450  1.00  8.29     0.227 C 
HETATM    5  O3  BES A 501      34.093  14.792 198.498  1.00  7.85    -0.277 OA
HETATM    6  N1  BES A 501      36.381  14.227 198.683  1.00  8.97    -0.246 NA
HETATM    7  H7  BES A 501      36.887  13.901 197.798  1.00  8.27     0.131 HD
BRANCH   6   8
HETATM    8  C4  BES A 501      36.926  15.551 198.982  1.00 10.85     0.169 C 
BRANCH   8   9
HETATM    9  C13 BES A 501      37.305  15.628 200.464  1.00  8.22     0.089 C 
BRANCH   9  10
HETATM   10  C7  BES A 501      37.334  14.220 201.089  1.00 11.21     0.029 A 
HETATM   11  C21 BES A 501      36.365  13.686 202.160  1.00  0.00     0.143 A 
HETATM   12  N22 BES A 501      36.768  12.235 202.484  1.00  0.00    -0.254 N 
HETATM   13  C23 BES A 501      37.986  11.873 201.614  1.00  0.00     0.207 A 
HETATM   14  N24 BES A 501      38.335  13.100 200.750  1.00  0.00    -0.353 N 
HETATM   15  H13 BES A 501      39.133  13.164 200.041  1.00  8.23     0.166 HD
ENDBRANCH   9  10
ENDBRANCH   8   9
BRANCH   8  16
HETATM   16  C5  BES A 501      38.166  15.720 198.166  1.00 10.09     0.192 C 
HETATM   17  O1  BES A 501      38.309  16.762 197.467  1.00  5.58    -0.647 OA
HETATM   18  O4  BES A 501      39.049  14.812 198.253  1.00  5.29    -0.647 OA
ENDBRANCH   8  16
ENDBRANCH   6   8
ENDBRANCH   3   4
BRANCH   3  19
HETATM   19  O5  BES A 501      34.761  12.253 196.687  1.00  8.27    -0.387 OA
HETATM   20  H15 BES A 501      34.756  13.154 196.148  1.00  8.22     0.210 HD
ENDBRANCH   3  19
ENDBRANCH   2   3
ENDBRANCH   1   2
BRANCH   1  21
HETATM   21  N12 BES A 501      37.438  11.315 197.861  1.00  8.22    -0.079 N 
HETATM   22  H14 BES A 501      37.332  11.691 196.865  1.00  8.22     0.274 HD
HETATM   23  H15 BES A 501      38.230  10.598 197.889  1.00  8.22     0.274 HD
HETATM   24  H1  BES A 501      37.665  12.123 198.525  1.00  8.22     0.274 HD
ENDBRANCH   1  21
TORSDOF 9
REMARK  8 active torsions:
REMARK  status: ('A' for Active; 'I' for Inactive)
REMARK    1  A    between atoms: C70_1  and  C1_2 
REMARK    2  A    between atoms: C70_1  and  N12_19 
REMARK    3  A    between atoms: C1_2  and  C2_3 
REMARK    4  A    between atoms: C2_3  and  C3_4 
REMARK       I    between atoms: C3_4  and  N1_6 
REMARK    5  A    between atoms: N1_6  and  C4_7 
REMARK    6  A    between atoms: C4_7  and  C13_8 
REMARK    7  A    between atoms: C4_7  and  C5_10 
REMARK    8  A    between atoms: C13_8  and  C7_9 
ROOT
HETATM    1  C70 BES A 501      40.593  15.666 195.092  1.00  6.08     0.230 C 
ENDROOT
BRANCH   1   2
HETATM    2  C1  BES A 501      39.592  15.282 194.177  1.00  6.71     0.036 C 
BRANCH   2   3
HETATM    3  C2  BES A 501      38.926  13.960 194.402  1.00  9.09     0.098 C 
BRANCH   3   4
HETATM    4  C3  BES A 501      37.596  14.189 195.060  1.00  8.29     0.198 C 
HETATM    5  O3  BES A 501      37.164  13.306 195.766  1.00  7.85    -0.280 OA
HETATM    6  N1  BES A 501      36.889  15.456 194.825  1.00  8.97    -0.248 NA
HETATM    7  H7  BES A 501      36.764  15.524 193.764  1.00  8.27     0.131 HD
BRANCH   6   8
HETATM    8  C4  BES A 501      35.586  15.798 195.397  1.00 10.85     0.169 C 
BRANCH   8   9
HETATM    9  C13 BES A 501      35.391  17.316 195.358  1.00  8.22     0.089 C 
BRANCH   9  10
HETATM   10  C7  BES A 501      36.507  17.984 194.532  1.00 11.21     0.029 A 
HETATM   11  C21 BES A 501      36.405  18.421 193.059  1.00  0.00     0.143 A 
HETATM   12  N22 BES A 501      37.755  19.039 192.652  1.00  0.00    -0.254 N 
HETATM   13  C23 BES A 501      38.692  18.984 193.873  1.00  0.00     0.207 A 
HETATM   14  N24 BES A 501      37.920  18.332 195.036  1.00  0.00    -0.353 N 
HETATM   15  H13 BES A 501      38.299  18.152 196.020  1.00  8.23     0.166 HD
ENDBRANCH   9  10
ENDBRANCH   8   9
BRANCH   8  16
HETATM   16  C5  BES A 501      34.541  15.162 194.540  1.00 10.09     0.192 C 
HETATM   17  O1  BES A 501      34.604  15.293 193.286  1.00  5.58    -0.647 OA
HETATM   18  O4  BES A 501      33.650  14.471 195.125  1.00  5.29    -0.647 OA
ENDBRANCH   8  16
ENDBRANCH   6   8
ENDBRANCH   3   4
ENDBRANCH   2   3
ENDBRANCH   1   2
BRANCH   1  19
HETATM   19  N12 BES A 501      41.023  14.459 195.911  1.00  8.22    -0.079 N 
HETATM   20  H14 BES A 501      41.728  13.882 195.351  1.00  8.22     0.274 HD
HETATM   21  H15 BES A 501      40.168  13.858 196.136  1.00  8.22     0.274 HD
HETATM   22  H6  BES A 501      41.476  14.790 196.822  1.00  8.22     0.274 HD
ENDBRANCH   1  19
TORSDOF 8
ENDMDL
MODEL 7
REMARK VINA RESULT:    -1.975      7.862     10.416
REMARK INTER + INTRA:          -6.056
REMARK INTER:                  -3.813
REMARK INTRA:                  -2.243
REMARK UNBOUND:                -2.292
REMARK  9 active torsions:
REMARK  status: ('A' for Active; 'I' for Inactive)
REMARK    1  A    between atoms: C70_1  and  C1_2 
REMARK    2  A    between atoms: C70_1  and  N12_20 
REMARK    3  A    between atoms: C1_2  and  C2_3 
REMARK    4  A    between atoms: C2_3  and  C3_4 
REMARK    5  A    between atoms: C2_3  and  O5_17 
REMARK       I    between atoms: C3_4  and  N1_6 
REMARK    6  A    between atoms: N1_6  and  C4_7 
REMARK    7  A    between atoms: C4_7  and  C13_8 
REMARK    8  A    between atoms: C4_7  and  C5_10 
REMARK    9  A    between atoms: C13_8  and  C7_9 
ROOT
HETATM    1  C70 BES A 501      44.001  16.304 193.870  1.00  6.08     0.232 C 
ENDROOT
BRANCH   1   2
HETATM    2  C1  BES A 501      43.160  15.233 193.505  1.00  6.71     0.068 C 
BRANCH   2   3
HETATM    3  C2  BES A 501      42.449  15.333 192.192  1.00  9.09     0.205 C 
BRANCH   3   4
HETATM    4  C3  BES A 501      40.977  15.495 192.445  1.00  8.29     0.227 C 
HETATM    5  O3  BES A 501      40.218  14.907 191.707  1.00  7.85    -0.277 OA
HETATM    6  N1  BES A 501      40.531  16.340 193.560  1.00  8.97    -0.246 NA
HETATM    7  H7  BES A 501      40.955  17.306 193.378  1.00  8.27     0.131 HD
BRANCH   6   8
HETATM    8  C4  BES A 501      39.130  16.587 193.906  1.00 10.85     0.169 C 
BRANCH   8   9
HETATM    9  C13 BES A 501      38.660  15.543 194.922  1.00  8.22     0.089 C 
BRANCH   9  10
HETATM   10  C7  BES A 501      39.866  14.897 195.631  1.00 11.21     0.029 A 
HETATM   11  C21 BES A 501      40.255  13.408 195.579  1.00  0.00     0.143 A 
HETATM   12  N22 BES A 501      41.523  13.218 196.431  1.00  0.00    -0.254 N 
HETATM   13  C23 BES A 501      41.918  14.589 197.011  1.00  0.00     0.207 A 
HETATM   14  N24 BES A 501      40.893  15.628 196.515  1.00  0.00    -0.353 N 
HETATM   15  H13 BES A 501      40.895  16.672 196.746  1.00  8.23     0.166 HD
ENDBRANCH   9  10
ENDBRANCH   8   9
BRANCH   8  16
HETATM   16  C5  BES A 501      39.057  17.936 194.542  1.00 10.09     0.192 C 
HETATM   17  O1  BES A 501      37.977  18.588 194.487  1.00  5.58    -0.647 OA
HETATM   18  O4  BES A 501      40.088  18.347 195.157  1.00  5.29    -0.647 OA
ENDBRANCH   8  16
ENDBRANCH   6   8
ENDBRANCH   3   4
BRANCH   3  19
HETATM   19  O5  BES A 501      42.961  16.521 191.432  1.00  8.27    -0.387 OA
HETATM   20  H15 BES A 501      43.995  16.617 191.588  1.00  8.22     0.210 HD
ENDBRANCH   3  19
ENDBRANCH   2   3
ENDBRANCH   1   2
BRANCH   1  21
HETATM   21  N12 BES A 501      43.162  17.435 194.445  1.00  8.22    -0.079 N 
HETATM   22  H14 BES A 501      43.719  18.347 194.405  1.00  8.22     0.274 HD
HETATM   23  H15 BES A 501      42.913  17.213 195.461  1.00  8.22     0.274 HD
HETATM   24  H1  BES A 501      42.265  17.540 193.873  1.00  8.22     0.274 HD
ENDBRANCH   1  21
TORSDOF 9
REMARK  8 active torsions:
REMARK  status: ('A' for Active; 'I' for Inactive)
REMARK    1  A    between atoms: C70_1  and  C1_2 
REMARK    2  A    between atoms: C70_1  and  N12_19 
REMARK    3  A    between atoms: C1_2  and  C2_3 
REMARK    4  A    between atoms: C2_3  and  C3_4 
REMARK       I    between atoms: C3_4  and  N1_6 
REMARK    5  A    between atoms: N1_6  and  C4_7 
REMARK    6  A    between atoms: C4_7  and  C13_8 
REMARK    7  A    between atoms: C4_7  and  C5_10 
REMARK    8  A    between atoms: C13_8  and  C7_9 
ROOT
HETATM    1  C70 BES A 501      38.689  21.881 193.599  1.00  6.08     0.230 C 
ENDROOT
BRANCH   1   2
HETATM    2  C1  BES A 501      39.497  21.688 192.461  1.00  6.71     0.036 C 
BRANCH   2   3
HETATM    3  C2  BES A 501      40.824  21.026 192.664  1.00  9.09     0.098 C 
BRANCH   3   4
HETATM    4  C3  BES A 501      40.809  19.684 191.990  1.00  8.29     0.198 C 
HETATM    5  O3  BES A 501      41.706  18.917 192.256  1.00  7.85    -0.280 OA
HETATM    6  N1  BES A 501      39.720  19.365 191.055  1.00  8.97    -0.248 NA
HETATM    7  H7  BES A 501      39.753  20.126 190.304  1.00  8.27     0.131 HD
BRANCH   6   8
HETATM    8  C4  BES A 501      39.595  18.101 190.328  1.00 10.85     0.169 C 
BRANCH   8   9
HETATM    9  C13 BES A 501      38.167  17.956 189.793  1.00  8.22     0.089 C 
BRANCH   9  10
HETATM   10  C7  BES A 501      37.343  17.022 190.698  1.00 11.21     0.029 A 
HETATM   11  C21 BES A 501      36.228  17.455 191.669  1.00  0.00     0.143 A 
HETATM   12  N22 BES A 501      35.685  16.192 192.362  1.00  0.00    -0.254 N 
HETATM   13  C23 BES A 501      36.464  14.978 191.821  1.00  0.00     0.207 A 
HETATM   14  N24 BES A 501      37.489  15.492 190.791  1.00  0.00    -0.353 N 
HETATM   15  H13 BES A 501      38.180  14.891 190.239  1.00  8.23     0.166 HD
ENDBRANCH   9  10
ENDBRANCH   8   9
BRANCH   8  16
HETATM   16  C5  BES A 501      40.534  18.157 189.168  1.00 10.09     0.192 C 
HETATM   17  O1  BES A 501      40.442  19.109 188.343  1.00  5.58    -0.647 OA
HETATM   18  O4  BES A 501      41.422  17.253 189.094  1.00  5.29    -0.647 OA
ENDBRANCH   8  16
ENDBRANCH   6   8
ENDBRANCH   3   4
ENDBRANCH   2   3
ENDBRANCH   1   2
BRANCH   1  19
HETATM   19  N12 BES A 501      39.438  21.416 194.838  1.00  8.22    -0.079 N 
HETATM   20  H14 BES A 501      38.834  20.718 195.379  1.00  8.22     0.274 HD
HETATM   21  H15 BES A 501      39.656  22.257 195.461  1.00  8.22     0.274 HD
HETATM   22  H6  BES A 501      40.352  20.943 194.546  1.00  8.22     0.274 HD
ENDBRANCH   1  19
TORSDOF 8
ENDMDL
MODEL 8
REMARK VINA RESULT:    -1.968      3.242      5.530
REMARK INTER + INTRA:          -6.043
REMARK INTER:                  -3.755
REMARK INTRA:                  -2.288
REMARK UNBOUND:                -2.292
REMARK  9 active torsions:
REMARK  status: ('A' for Active; 'I' for Inactive)
REMARK    1  A    between atoms: C70_1  and  C1_2 
REMARK    2  A    between atoms: C70_1  and  N12_20 
REMARK    3  A    between atoms: C1_2  and  C2_3 
REMARK    4  A    between atoms: C2_3  and  C3_4 
REMARK    5  A    between atoms: C2_3  and  O5_17 
REMARK       I    between atoms: C3_4  and  N1_6 
REMARK    6  A    between atoms: N1_6  and  C4_7 
REMARK    7  A    between atoms: C4_7  and  C13_8 
REMARK    8  A    between atoms: C4_7  and  C5_10 
REMARK    9  A    between atoms: C13_8  and  C7_9 
ROOT
HETATM    1  C70 BES A 501      38.130  20.323 198.348  1.00  6.08     0.232 C 
ENDROOT
BRANCH   1   2
HETATM    2  C1  BES A 501      37.796  20.136 199.704  1.00  6.71     0.068 C 
BRANCH   2   3
HETATM    3  C2  BES A 501      37.814  18.734 200.229  1.00  9.09     0.205 C 
BRANCH   3   4
HETATM    4  C3  BES A 501      36.443  18.382 200.730  1.00  8.29     0.227 C 
HETATM    5  O3  BES A 501      36.371  17.765 201.769  1.00  7.85    -0.277 OA
HETATM    6  N1  BES A 501      35.268  18.800 199.954  1.00  8.97    -0.246 NA
HETATM    7  H7  BES A 501      35.398  18.373 198.981  1.00  8.27     0.131 HD
BRANCH   6   8
HETATM    8  C4  BES A 501      33.882  18.513 200.326  1.00 10.85     0.169 C 
BRANCH   8   9
HETATM    9  C13 BES A 501      33.255  19.753 200.970  1.00  8.22     0.089 C 
BRANCH   9  10
HETATM   10  C7  BES A 501      34.107  21.003 200.679  1.00 11.21     0.029 A 
HETATM   11  C21 BES A 501      34.885  21.830 201.719  1.00  0.00     0.143 A 
HETATM   12  N22 BES A 501      35.589  22.982 200.979  1.00  0.00    -0.254 N 
HETATM   13  C23 BES A 501      35.246  22.868 199.482  1.00  0.00     0.207 A 
HETATM   14  N24 BES A 501      34.329  21.644 199.296  1.00  0.00    -0.353 N 
HETATM   15  H13 BES A 501      33.919  21.299 198.370  1.00  8.23     0.166 HD
ENDBRANCH   9  10
ENDBRANCH   8   9
BRANCH   8  16
HETATM   16  C5  BES A 501      33.136  18.202 199.070  1.00 10.09     0.192 C 
HETATM   17  O1  BES A 501      33.193  19.008 198.100  1.00  5.58    -0.647 OA
HETATM   18  O4  BES A 501      32.507  17.100 199.024  1.00  5.29    -0.647 OA
ENDBRANCH   8  16
ENDBRANCH   6   8
ENDBRANCH   3   4
BRANCH   3  19
HETATM   19  O5  BES A 501      38.205  17.790 199.132  1.00  8.27    -0.387 OA
HETATM   20  H15 BES A 501      38.770  17.001 199.534  1.00  8.22     0.210 HD
ENDBRANCH   3  19
ENDBRANCH   2   3
ENDBRANCH   1   2
BRANCH   1  21
HETATM   21  N12 BES A 501      36.906  20.064 197.483  1.00  8.22    -0.079 N 
HETATM   22  H14 BES A 501      37.192  19.497 196.622  1.00  8.22     0.274 HD
HETATM   23  H15 BES A 501      36.485  20.996 197.172  1.00  8.22     0.274 HD
HETATM   24  H1  BES A 501      36.181  19.515 198.046  1.00  8.22     0.274 HD
ENDBRANCH   1  21
TORSDOF 9
REMARK  8 active torsions:
REMARK  status: ('A' for Active; 'I' for Inactive)
REMARK    1  A    between atoms: C70_1  and  C1_2 
REMARK    2  A    between atoms: C70_1  and  N12_19 
REMARK    3  A    between atoms: C1_2  and  C2_3 
REMARK    4  A    between atoms: C2_3  and  C3_4 
REMARK       I    between atoms: C3_4  and  N1_6 
REMARK    5  A    between atoms: N1_6  and  C4_7 
REMARK    6  A    between atoms: C4_7  and  C13_8 
REMARK    7  A    between atoms: C4_7  and  C5_10 
REMARK    8  A    between atoms: C13_8  and  C7_9 
ROOT
HETATM    1  C70 BES A 501      34.020  18.417 194.608  1.00  6.08     0.230 C 
ENDROOT
BRANCH   1   2
HETATM    2  C1  BES A 501      35.158  17.659 194.949  1.00  6.71     0.036 C 
BRANCH   2   3
HETATM    3  C2  BES A 501      34.930  16.325 195.587  1.00  9.09     0.098 C 
BRANCH   3   4
HETATM    4  C3  BES A 501      35.403  16.378 197.011  1.00  8.29     0.198 C 
HETATM    5  O3  BES A 501      36.073  17.331 197.341  1.00  7.85    -0.280 OA
HETATM    6  N1  BES A 501      35.034  15.291 197.930  1.00  8.97    -0.248 NA
HETATM    7  H7  BES A 501      35.405  14.394 197.478  1.00  8.27     0.131 HD
BRANCH   6   8
HETATM    8  C4  BES A 501      35.438  15.218 199.334  1.00 10.85     0.169 C 
BRANCH   8   9
HETATM    9  C13 BES A 501      34.447  14.343 200.109  1.00  8.22     0.089 C 
BRANCH   9  10
HETATM   10  C7  BES A 501      34.259  14.878 201.541  1.00 11.21     0.029 A 
HETATM   11  C21 BES A 501      32.939  15.382 202.153  1.00  0.00     0.143 A 
HETATM   12  N22 BES A 501      33.222  15.818 203.602  1.00  0.00    -0.254 N 
HETATM   13  C23 BES A 501      34.718  15.585 203.886  1.00  0.00     0.207 A 
HETATM   14  N24 BES A 501      35.359  15.004 202.611  1.00  0.00    -0.353 N 
HETATM   15  H13 BES A 501      36.387  14.735 202.491  1.00  8.23     0.166 HD
ENDBRANCH   9  10
ENDBRANCH   8   9
BRANCH   8  16
HETATM   16  C5  BES A 501      36.782  14.569 199.381  1.00 10.09     0.192 C 
HETATM   17  O1  BES A 501      37.056  13.654 198.555  1.00  5.58    -0.647 OA
HETATM   18  O4  BES A 501      37.612  15.009 200.235  1.00  5.29    -0.647 OA
ENDBRANCH   8  16
ENDBRANCH   6   8
ENDBRANCH   3   4
ENDBRANCH   2   3
ENDBRANCH   1   2
BRANCH   1  19
HETATM   19  N12 BES A 501      34.026  19.722 195.389  1.00  8.22    -0.079 N 
HETATM   20  H14 BES A 501      33.154  19.771 196.007  1.00  8.22     0.274 HD
HETATM   21  H15 BES A 501      34.027  20.546 194.708  1.00  8.22     0.274 HD
HETATM   22  H6  BES A 501      34.901  19.765 196.004  1.00  8.22     0.274 HD
ENDBRANCH   1  19
TORSDOF 8
ENDMDL
MODEL 9
REMARK VINA RESULT:    -1.967      5.421      9.391
REMARK INTER + INTRA:          -6.041
REMARK INTER:                  -3.395
REMARK INTRA:                  -2.646
REMARK UNBOUND:                -2.292
REMARK  9 active torsions:
REMARK  status: ('A' for Active; 'I' for Inactive)
REMARK    1  A    between atoms: C70_1  and  C1_2 
REMARK    2  A    between atoms: C70_1  and  N12_20 
REMARK    3  A    between atoms: C1_2  and  C2_3 
REMARK    4  A    between atoms: C2_3  and  C3_4 
REMARK    5  A    between atoms: C2_3  and  O5_17 
REMARK       I    between atoms: C3_4  and  N1_6 
REMARK    6  A    between atoms: N1_6  and  C4_7 
REMARK    7  A    between atoms: C4_7  and  C13_8 
REMARK    8  A    between atoms: C4_7  and  C5_10 
REMARK    9  A    between atoms: C13_8  and  C7_9 
ROOT
HETATM    1  C70 BES A 501      31.895  12.938 194.191  1.00  6.08     0.232 C 
ENDROOT
BRANCH   1   2
HETATM    2  C1  BES A 501      32.892  13.766 193.636  1.00  6.71     0.068 C 
BRANCH   2   3
HETATM    3  C2  BES A 501      33.990  13.099 192.867  1.00  9.09     0.205 C 
BRANCH   3   4
HETATM    4  C3  BES A 501      35.128  14.066 192.704  1.00  8.29     0.227 C 
HETATM    5  O3  BES A 501      35.776  13.996 191.684  1.00  7.85    -0.277 OA
HETATM    6  N1  BES A 501      35.397  15.042 193.769  1.00  8.97    -0.246 NA
HETATM    7  H7  BES A 501      35.563  14.463 194.654  1.00  8.27     0.131 HD
BRANCH   6   8
HETATM    8  C4  BES A 501      36.478  16.027 193.737  1.00 10.85     0.169 C 
BRANCH   8   9
HETATM    9  C13 BES A 501      35.890  17.429 193.552  1.00  8.22     0.089 C 
BRANCH   9  10
HETATM   10  C7  BES A 501      34.377  17.423 193.841  1.00 11.21     0.029 A 
HETATM   11  C21 BES A 501      33.259  17.696 192.817  1.00  0.00     0.143 A 
HETATM   12  N22 BES A 501      31.908  17.584 193.547  1.00  0.00    -0.254 N 
HETATM   13  C23 BES A 501      32.190  17.242 195.022  1.00  0.00     0.207 A 
HETATM   14  N24 BES A 501      33.717  17.143 195.204  1.00  0.00    -0.353 N 
HETATM   15  H13 BES A 501      34.229  16.918 196.116  1.00  8.23     0.166 HD
ENDBRANCH   9  10
ENDBRANCH   8   9
BRANCH   8  16
HETATM   16  C5  BES A 501      37.172  15.974 195.059  1.00 10.09     0.192 C 
HETATM   17  O1  BES A 501      38.056  15.095 195.259  1.00  5.58    -0.647 OA
HETATM   18  O4  BES A 501      36.865  16.861 195.914  1.00  5.29    -0.647 OA
ENDBRANCH   8  16
ENDBRANCH   6   8
ENDBRANCH   3   4
BRANCH   3  19
HETATM   19  O5  BES A 501      34.463  11.888 193.613  1.00  8.27    -0.387 OA
HETATM   20  H15 BES A 501      34.842  11.184 192.932  1.00  8.22     0.210 HD
ENDBRANCH   3  19
ENDBRANCH   2   3
ENDBRANCH   1   2
BRANCH   1  21
HETATM   21  N12 BES A 501      32.284  12.557 195.611  1.00  8.22    -0.079 N 
HETATM   22  H14 BES A 501      31.406  12.509 196.220  1.00  8.22     0.274 HD
HETATM   23  H15 BES A 501      32.953  13.291 196.007  1.00  8.22     0.274 HD
HETATM   24  H1  BES A 501      32.766  11.602 195.604  1.00  8.22     0.274 HD
ENDBRANCH   1  21
TORSDOF 9
REMARK  8 active torsions:
REMARK  status: ('A' for Active; 'I' for Inactive)
REMARK    1  A    between atoms: C70_1  and  C1_2 
REMARK    2  A    between atoms: C70_1  and  N12_19 
REMARK    3  A    between atoms: C1_2  and  C2_3 
REMARK    4  A    between atoms: C2_3  and  C3_4 
REMARK       I    between atoms: C3_4  and  N1_6 
REMARK    5  A    between atoms: N1_6  and  C4_7 
REMARK    6  A    between atoms: C4_7  and  C13_8 
REMARK    7  A    between atoms: C4_7  and  C5_10 
REMARK    8  A    between atoms: C13_8  and  C7_9 
ROOT
HETATM    1  C70 BES A 501      36.381  18.708 199.245  1.00  6.08     0.230 C 
ENDROOT
BRANCH   1   2
HETATM    2  C1  BES A 501      36.940  17.591 199.898  1.00  6.71     0.036 C 
BRANCH   2   3
HETATM    3  C2  BES A 501      38.075  16.894 199.216  1.00  9.09     0.098 C 
BRANCH   3   4
HETATM    4  C3  BES A 501      37.703  15.456 198.995  1.00  8.29     0.198 C 
HETATM    5  O3  BES A 501      38.550  14.620 199.217  1.00  7.85    -0.280 OA
HETATM    6  N1  BES A 501      36.346  15.130 198.532  1.00  8.97    -0.248 NA
HETATM    7  H7  BES A 501      36.221  15.663 197.612  1.00  8.27     0.131 HD
BRANCH   6   8
HETATM    8  C4  BES A 501      35.862  13.775 198.269  1.00 10.85     0.169 C 
BRANCH   8   9
HETATM    9  C13 BES A 501      34.855  13.371 199.350  1.00  8.22     0.089 C 
BRANCH   9  10
HETATM   10  C7  BES A 501      34.398  14.605 200.152  1.00 11.21     0.029 A 
HETATM   11  C21 BES A 501      34.701  14.882 201.636  1.00  0.00     0.143 A 
HETATM   12  N22 BES A 501      34.050  16.226 202.011  1.00  0.00    -0.254 N 
HETATM   13  C23 BES A 501      33.344  16.779 200.759  1.00  0.00     0.207 A 
HETATM   14  N24 BES A 501      33.560  15.777 199.609  1.00  0.00    -0.353 N 
HETATM   15  H13 BES A 501      33.192  15.877 198.610  1.00  8.23     0.166 HD
ENDBRANCH   9  10
ENDBRANCH   8   9
BRANCH   8  16
HETATM   16  C5  BES A 501      35.160  13.797 196.951  1.00 10.09     0.192 C 
HETATM   17  O1  BES A 501      35.399  12.888 196.108  1.00  5.58    -0.647 OA
HETATM   18  O4  BES A 501      34.310  14.720 196.759  1.00  5.29    -0.647 OA
ENDBRANCH   8  16
ENDBRANCH   6   8
ENDBRANCH   3   4
ENDBRANCH   2   3
ENDBRANCH   1   2
BRANCH   1  19
HETATM   19  N12 BES A 501      35.502  18.236 198.096  1.00  8.22    -0.079 N 
HETATM   20  H14 BES A 501      35.135  17.255 198.308  1.00  8.22     0.274 HD
HETATM   21  H15 BES A 501      36.076  18.215 197.193  1.00  8.22     0.274 HD
HETATM   22  H6  BES A 501      34.678  18.908 197.978  1.00  8.22     0.274 HD
ENDBRANCH   1  19
TORSDOF 8
ENDMDL
