MODEL 1
REMARK VINA RESULT:    -3.718      0.000      0.000
REMARK INTER + INTRA:          -7.334
REMARK INTER:                  -5.674
REMARK INTRA:                  -1.660
REMARK UNBOUND:                -1.660
REMARK  Name = KETCA.pdb
REMARK  8 active torsions:
REMARK  status: ('A' for Active; 'I' for Inactive)
REMARK    1  A    between atoms: O5_5  and  C16_16
REMARK    2  A    between atoms: O5_5  and  C24_24
REMARK    3  A    between atoms: N7_7  and  C21_21
REMARK    4  A    between atoms: N9_9  and  C14_14
REMARK    5  A    between atoms: C11_11  and  C14_14
REMARK    6  A    between atoms: C11_11  and  C15_15
REMARK    7  A    between atoms: C12_12  and  C16_16
REMARK    8  A    between atoms: C25_25  and  C36_36
REMARK                            x       y       z     vdW  Elec       q    Type
REMARK                         _______ _______ _______ _____ _____    ______ ____
ROOT
ATOM      1  O3  UNK K   1      33.593  13.222 195.780  0.00  0.00    +0.000 OA
ATOM      2  O4  UNK K   1      32.953  11.013 196.162  0.00  0.00    +0.000 OA
ATOM      3  C11 UNK K   1      34.084  11.796 195.698  0.00  0.00    +0.000 C 
ATOM      4  C12 UNK K   1      32.171  13.119 196.178  0.00  0.00    +0.000 C 
ATOM      5  C13 UNK K   1      31.823  11.764 195.560  0.00  0.00    +0.000 C 
ENDROOT
BRANCH   3   8
ATOM      6 CL1  UNK K   1      34.314  11.932 198.966  0.00  0.00    +0.000 Cl
ATOM      7 CL2  UNK K   1      39.554  11.006 198.422  0.00  0.00    +0.000 Cl
ATOM      8  C15 UNK K   1      35.440  11.636 196.519  0.00  0.00    +0.000 A 
ATOM      9  C22 UNK K   1      35.588  11.635 197.865  0.00  0.00    +0.000 A 
ATOM     10  C23 UNK K   1      36.646  11.377 195.702  0.00  0.00    +0.000 A 
ATOM     11  C32 UNK K   1      36.931  11.457 198.462  0.00  0.00    +0.000 A 
ATOM     12  C33 UNK K   1      37.848  11.220 196.257  0.00  0.00    +0.000 A 
ATOM     13  C34 UNK K   1      37.995  11.235 197.698  0.00  0.00    +0.000 A 
ENDBRANCH   3   8
BRANCH   3  14
ATOM     14  C14 UNK K   1      34.268  11.413 194.154  0.00  0.00    +0.000 C 
BRANCH  14  15
ATOM     15  N9  UNK K   1      34.357  12.537 193.181  0.00  0.00    +0.000 N 
ATOM     16  N10 UNK K   1      33.757  13.901 191.613  0.00  0.00    +0.000 NA
ATOM     17  C28 UNK K   1      35.538  13.099 192.697  0.00  0.00    +0.000 A 
ATOM     18  C29 UNK K   1      33.284  13.058 192.452  0.00  0.00    +0.000 A 
ATOM     19  C35 UNK K   1      35.171  13.953 191.740  0.00  0.00    +0.000 A 
ENDBRANCH  14  15
ENDBRANCH   3  14
BRANCH   4  20
ATOM     20  C16 UNK K   1      31.239  14.443 195.808  0.00  0.00    +0.000 C 
BRANCH  20  21
ATOM     21  O5  UNK K   1      31.233  15.522 196.870  0.00  0.00    +0.000 OA
BRANCH  21  23
ATOM     22  C21 UNK K   1      34.975  17.609 197.998  0.00  0.00    +0.000 A 
ATOM     23  C24 UNK K   1      32.500  16.292 197.201  0.00  0.00    +0.000 A 
ATOM     24  C26 UNK K   1      34.312  17.993 196.890  0.00  0.00    +0.000 A 
ATOM     25  C27 UNK K   1      34.399  16.511 198.791  0.00  0.00    +0.000 A 
ATOM     26  C30 UNK K   1      32.996  17.306 196.472  0.00  0.00    +0.000 A 
ATOM     27  C31 UNK K   1      33.264  15.895 198.421  0.00  0.00    +0.000 A 
BRANCH  22  29
ATOM     28  O6  UNK K   1      41.080  19.684 199.077  0.00  0.00    +0.000 OA
ATOM     29  N7  UNK K   1      36.255  18.236 198.427  0.00  0.00    +0.000 N 
ATOM     30  N8  UNK K   1      38.804  19.337 199.321  0.00  0.00    +0.000 N 
ATOM     31  C17 UNK K   1      37.241  18.701 197.462  0.00  0.00    +0.000 C 
ATOM     32  C18 UNK K   1      36.569  18.362 199.849  0.00  0.00    +0.000 C 
ATOM     33  C19 UNK K   1      38.709  18.628 198.061  0.00  0.00    +0.000 C 
ATOM     34  C20 UNK K   1      37.613  19.515 200.121  0.00  0.00    +0.000 C 
ATOM     35  C25 UNK K   1      40.065  19.852 199.765  0.00  0.00    +0.000 C 
ATOM     36  C36 UNK K   1      40.172  20.629 201.055  0.00  0.00    +0.000 C 
ENDBRANCH  22  29
ENDBRANCH  21  23
ENDBRANCH  20  21
ENDBRANCH   4  20
TORSDOF 7
REMARK  Name = HEMCA.pdb
REMARK  4 active torsions:
REMARK  status: ('A' for Active; 'I' for Inactive)
REMARK    1  A    between atoms: C5_5  and  O19_19
REMARK    2  A    between atoms: C6_6  and  O18_18
REMARK    3  A    between atoms: C7_7  and  O20_20
REMARK    4  A    between atoms: C17_17  and  O21_21
REMARK                            x       y       z     vdW  Elec       q    Type
REMARK                         _______ _______ _______ _____ _____    ______ ____
ROOT
ATOM      1  C1  UNK H   1      38.268  14.507 200.131  0.00  0.00    +0.000 A 
ATOM      2  C2  UNK H   1      36.944  14.617 200.233  0.00  0.00    +0.000 A 
ATOM      3  C3  UNK H   1      39.085  14.324 201.346  0.00  0.00    +0.000 A 
ATOM      4  C4  UNK H   1      36.303  14.570 201.548  0.00  0.00    +0.000 A 
ATOM      5  C5  UNK H   1      38.497  14.295 202.540  0.00  0.00    +0.000 A 
ATOM      6  C6  UNK H   1      37.043  14.427 202.646  0.00  0.00    +0.000 A 
ATOM      7  C7  UNK H   1      40.463  14.679 198.891  0.00  0.00    +0.000 C 
ATOM      8  C8  UNK H   1      38.993  14.600 198.859  0.00  0.00    +0.000 C 
ATOM      9  C9  UNK H   1      41.096  13.855 200.012  0.00  0.00    +0.000 C 
ATOM     10  O10 UNK H   1      40.467  14.152 201.254  0.00  0.00    +0.000 OA
ATOM     11  C11 UNK H   1      40.928  14.395 197.426  0.00  0.00    +0.000 C 
ATOM     12  C12 UNK H   1      39.659  14.782 196.722  0.00  0.00    +0.000 C 
ATOM     13  C13 UNK H   1      38.551  14.762 197.612  0.00  0.00    +0.000 C 
ATOM     14  C14 UNK H   1      39.517  14.976 195.417  0.00  0.00    +0.000 C 
ATOM     15  C15 UNK H   1      38.157  15.206 194.903  0.00  0.00    +0.000 C 
ATOM     16  C16 UNK H   1      37.180  14.891 197.122  0.00  0.00    +0.000 C 
ATOM     17  C17 UNK H   1      36.992  15.114 195.819  0.00  0.00    +0.000 C 
ATOM     18  O22 UNK H   1      37.980  15.420 193.699  0.00  0.00    +0.000 OA
ENDROOT
BRANCH   6  19
ATOM     19  O18 UNK H   1      36.432  14.385 203.895  0.00  0.00    +0.000 OA
ATOM     20  H9  UNK H   1      37.111  14.711 204.628  0.00  0.00    +0.000 HD
ENDBRANCH   6  19
BRANCH   5  21
ATOM     21  O19 UNK H   1      39.264  14.115 203.686  0.00  0.00    +0.000 OA
ATOM     22  H10 UNK H   1      40.059  13.463 203.477  0.00  0.00    +0.000 HD
ENDBRANCH   5  21
BRANCH   7  23
ATOM     23  O20 UNK H   1      40.704  16.062 199.159  0.00  0.00    +0.000 OA
ATOM     24  H11 UNK H   1      40.232  16.648 198.427  0.00  0.00    +0.000 HD
ENDBRANCH   7  23
BRANCH  17  25
ATOM     25  O21 UNK H   1      35.704  15.258 195.320  0.00  0.00    +0.000 OA
ATOM     26  H12 UNK H   1      35.734  15.275 194.270  0.00  0.00    +0.000 HD
ENDBRANCH  17  25
TORSDOF 4
ENDMDL
MODEL 2
REMARK VINA RESULT:    -3.715      2.655      4.012
REMARK INTER + INTRA:          -7.329
REMARK INTER:                  -5.683
REMARK INTRA:                  -1.646
REMARK UNBOUND:                -1.660
REMARK  Name = KETCA.pdb
REMARK  8 active torsions:
REMARK  status: ('A' for Active; 'I' for Inactive)
REMARK    1  A    between atoms: O5_5  and  C16_16
REMARK    2  A    between atoms: O5_5  and  C24_24
REMARK    3  A    between atoms: N7_7  and  C21_21
REMARK    4  A    between atoms: N9_9  and  C14_14
REMARK    5  A    between atoms: C11_11  and  C14_14
REMARK    6  A    between atoms: C11_11  and  C15_15
REMARK    7  A    between atoms: C12_12  and  C16_16
REMARK    8  A    between atoms: C25_25  and  C36_36
REMARK                            x       y       z     vdW  Elec       q    Type
REMARK                         _______ _______ _______ _____ _____    ______ ____
ROOT
ATOM      1  O3  UNK K   1      37.941  11.222 197.326  0.00  0.00    +0.000 OA
ATOM      2  O4  UNK K   1      38.863   9.180 197.970  0.00  0.00    +0.000 OA
ATOM      3  C11 UNK K   1      39.208  10.401 197.265  0.00  0.00    +0.000 C 
ATOM      4  C12 UNK K   1      36.940  10.341 197.966  0.00  0.00    +0.000 C 
ATOM      5  C13 UNK K   1      37.464   8.976 197.516  0.00  0.00    +0.000 C 
ENDROOT
BRANCH   3   8
ATOM      6 CL1  UNK K   1      39.502  11.326 200.397  0.00  0.00    +0.000 Cl
ATOM      7 CL2  UNK K   1      44.193  13.532 199.081  0.00  0.00    +0.000 Cl
ATOM      8  C15 UNK K   1      40.430  11.237 197.853  0.00  0.00    +0.000 A 
ATOM      9  C22 UNK K   1      40.629  11.603 199.141  0.00  0.00    +0.000 A 
ATOM     10  C23 UNK K   1      41.497  11.563 196.881  0.00  0.00    +0.000 A 
ATOM     11  C32 UNK K   1      41.839  12.369 199.514  0.00  0.00    +0.000 A 
ATOM     12  C33 UNK K   1      42.580  12.255 197.235  0.00  0.00    +0.000 A 
ATOM     13  C34 UNK K   1      42.773  12.654 198.615  0.00  0.00    +0.000 A 
ENDBRANCH   3   8
BRANCH   3  14
ATOM     14  C14 UNK K   1      39.454   9.965 195.744  0.00  0.00    +0.000 C 
BRANCH  14  15
ATOM     15  N9  UNK K   1      38.817  10.798 194.687  0.00  0.00    +0.000 N 
ATOM     16  N10 UNK K   1      37.359  11.429 193.220  0.00  0.00    +0.000 NA
ATOM     17  C28 UNK K   1      39.482  11.702 193.858  0.00  0.00    +0.000 A 
ATOM     18  C29 UNK K   1      37.506  10.653 194.227  0.00  0.00    +0.000 A 
ATOM     19  C35 UNK K   1      38.580  12.106 192.961  0.00  0.00    +0.000 A 
ENDBRANCH  14  15
ENDBRANCH   3  14
BRANCH   4  20
ATOM     20  C16 UNK K   1      35.355  10.741 197.666  0.00  0.00    +0.000 C 
BRANCH  20  21
ATOM     21  O5  UNK K   1      34.798  11.817 198.573  0.00  0.00    +0.000 OA
BRANCH  21  23
ATOM     22  C21 UNK K   1      36.641  15.845 198.699  0.00  0.00    +0.000 A 
ATOM     23  C24 UNK K   1      35.379  13.221 198.559  0.00  0.00    +0.000 A 
ATOM     24  C26 UNK K   1      35.781  15.542 197.708  0.00  0.00    +0.000 A 
ATOM     25  C27 UNK K   1      36.911  14.808 199.708  0.00  0.00    +0.000 A 
ATOM     26  C30 UNK K   1      35.103  14.160 197.638  0.00  0.00    +0.000 A 
ATOM     27  C31 UNK K   1      36.339  13.594 199.640  0.00  0.00    +0.000 A 
BRANCH  22  29
ATOM     28  O6  UNK K   1      40.368  21.202 198.311  0.00  0.00    +0.000 OA
ATOM     29  N7  UNK K   1      37.328  17.162 198.795  0.00  0.00    +0.000 N 
ATOM     30  N8  UNK K   1      38.786  19.676 199.039  0.00  0.00    +0.000 N 
ATOM     31  C17 UNK K   1      37.743  17.896 197.608  0.00  0.00    +0.000 C 
ATOM     32  C18 UNK K   1      37.639  17.733 200.104  0.00  0.00    +0.000 C 
ATOM     33  C19 UNK K   1      39.013  18.800 197.908  0.00  0.00    +0.000 C 
ATOM     34  C20 UNK K   1      37.808  19.302 200.035  0.00  0.00    +0.000 C 
ATOM     35  C25 UNK K   1      39.526  20.897 199.164  0.00  0.00    +0.000 C 
ATOM     36  C36 UNK K   1      39.271  21.840 200.316  0.00  0.00    +0.000 C 
ENDBRANCH  22  29
ENDBRANCH  21  23
ENDBRANCH  20  21
ENDBRANCH   4  20
TORSDOF 7
REMARK  Name = HEMCA.pdb
REMARK  4 active torsions:
REMARK  status: ('A' for Active; 'I' for Inactive)
REMARK    1  A    between atoms: C5_5  and  O19_19
REMARK    2  A    between atoms: C6_6  and  O18_18
REMARK    3  A    between atoms: C7_7  and  O20_20
REMARK    4  A    between atoms: C17_17  and  O21_21
REMARK                            x       y       z     vdW  Elec       q    Type
REMARK                         _______ _______ _______ _____ _____    ______ ____
ROOT
ATOM      1  C1  UNK H   1      41.333  15.949 200.466  0.00  0.00    +0.000 A 
ATOM      2  C2  UNK H   1      40.258  15.245 200.819  0.00  0.00    +0.000 A 
ATOM      3  C3  UNK H   1      42.186  16.559 201.506  0.00  0.00    +0.000 A 
ATOM      4  C4  UNK H   1      39.915  15.089 202.234  0.00  0.00    +0.000 A 
ATOM      5  C5  UNK H   1      41.861  16.424 202.790  0.00  0.00    +0.000 A 
ATOM      6  C6  UNK H   1      40.673  15.658 203.170  0.00  0.00    +0.000 A 
ATOM      7  C7  UNK H   1      42.795  17.165 198.801  0.00  0.00    +0.000 C 
ATOM      8  C8  UNK H   1      41.715  16.201 199.073  0.00  0.00    +0.000 C 
ATOM      9  C9  UNK H   1      43.904  17.153 199.852  0.00  0.00    +0.000 C 
ATOM     10  O10 UNK H   1      43.345  17.252 201.157  0.00  0.00    +0.000 OA
ATOM     11  C11 UNK H   1      43.199  16.930 197.311  0.00  0.00    +0.000 C 
ATOM     12  C12 UNK H   1      41.917  16.306 196.838  0.00  0.00    +0.000 C 
ATOM     13  C13 UNK H   1      41.161  15.797 197.929  0.00  0.00    +0.000 C 
ATOM     14  C14 UNK H   1      41.568  16.098 195.575  0.00  0.00    +0.000 C 
ATOM     15  C15 UNK H   1      40.333  15.338 195.322  0.00  0.00    +0.000 C 
ATOM     16  C16 UNK H   1      39.985  14.957 197.712  0.00  0.00    +0.000 C 
ATOM     17  C17 UNK H   1      39.582  14.744 196.458  0.00  0.00    +0.000 C 
ATOM     18  O22 UNK H   1      39.953  15.145 194.163  0.00  0.00    +0.000 OA
ENDROOT
BRANCH   6  19
ATOM     19  O18 UNK H   1      40.343  15.510 204.513  0.00  0.00    +0.000 OA
ATOM     20  H9  UNK H   1      40.765  14.621 204.882  0.00  0.00    +0.000 HD
ENDBRANCH   6  19
BRANCH   5  21
ATOM     21  O19 UNK H   1      42.666  16.990 203.771  0.00  0.00    +0.000 OA
ATOM     22  H10 UNK H   1      42.373  17.985 203.934  0.00  0.00    +0.000 HD
ENDBRANCH   5  21
BRANCH   7  23
ATOM     23  O20 UNK H   1      42.123  18.425 198.871  0.00  0.00    +0.000 OA
ATOM     24  H11 UNK H   1      42.654  19.137 198.311  0.00  0.00    +0.000 HD
ENDBRANCH   7  23
BRANCH  17  25
ATOM     25  O21 UNK H   1      38.458  13.965 196.214  0.00  0.00    +0.000 OA
ATOM     26  H12 UNK H   1      38.688  13.231 195.499  0.00  0.00    +0.000 HD
ENDBRANCH  17  25
TORSDOF 4
ENDMDL
MODEL 3
REMARK VINA RESULT:    -3.709      3.476      8.303
REMARK INTER + INTRA:          -7.321
REMARK INTER:                  -5.769
REMARK INTRA:                  -1.552
REMARK UNBOUND:                -1.660
REMARK  Name = KETCA.pdb
REMARK  8 active torsions:
REMARK  status: ('A' for Active; 'I' for Inactive)
REMARK    1  A    between atoms: O5_5  and  C16_16
REMARK    2  A    between atoms: O5_5  and  C24_24
REMARK    3  A    between atoms: N7_7  and  C21_21
REMARK    4  A    between atoms: N9_9  and  C14_14
REMARK    5  A    between atoms: C11_11  and  C14_14
REMARK    6  A    between atoms: C11_11  and  C15_15
REMARK    7  A    between atoms: C12_12  and  C16_16
REMARK    8  A    between atoms: C25_25  and  C36_36
REMARK                            x       y       z     vdW  Elec       q    Type
REMARK                         _______ _______ _______ _____ _____    ______ ____
ROOT
ATOM      1  O3  UNK K   1      42.395  14.898 199.195  0.00  0.00    +0.000 OA
ATOM      2  O4  UNK K   1      42.195  14.260 196.961  0.00  0.00    +0.000 OA
ATOM      3  C11 UNK K   1      42.578  13.728 198.257  0.00  0.00    +0.000 C 
ATOM      4  C12 UNK K   1      42.031  16.038 198.324  0.00  0.00    +0.000 C 
ATOM      5  C13 UNK K   1      42.757  15.632 197.041  0.00  0.00    +0.000 C 
ENDROOT
BRANCH   3   8
ATOM      6 CL1  UNK K   1      41.665  11.188 196.396  0.00  0.00    +0.000 Cl
ATOM      7 CL2  UNK K   1      39.469   9.044 200.776  0.00  0.00    +0.000 Cl
ATOM      8  C15 UNK K   1      41.749  12.472 198.780  0.00  0.00    +0.000 A 
ATOM      9  C22 UNK K   1      41.387  11.377 198.073  0.00  0.00    +0.000 A 
ATOM     10  C23 UNK K   1      41.422  12.489 200.222  0.00  0.00    +0.000 A 
ATOM     11  C32 UNK K   1      40.626  10.290 198.728  0.00  0.00    +0.000 A 
ATOM     12  C33 UNK K   1      40.735  11.501 200.797  0.00  0.00    +0.000 A 
ATOM     13  C34 UNK K   1      40.341  10.340 200.025  0.00  0.00    +0.000 A 
ENDBRANCH   3   8
BRANCH   3  14
ATOM     14  C14 UNK K   1      44.144  13.410 198.145  0.00  0.00    +0.000 C 
BRANCH  14  15
ATOM     15  N9  UNK K   1      44.999  13.794 199.302  0.00  0.00    +0.000 N 
ATOM     16  N10 UNK K   1      46.570  14.785 200.409  0.00  0.00    +0.000 NA
ATOM     17  C28 UNK K   1      45.172  13.044 200.466  0.00  0.00    +0.000 A 
ATOM     18  C29 UNK K   1      45.913  14.851 199.313  0.00  0.00    +0.000 A 
ATOM     19  C35 UNK K   1      46.130  13.662 201.159  0.00  0.00    +0.000 A 
ENDBRANCH  14  15
ENDBRANCH   3  14
BRANCH   4  20
ATOM     20  C16 UNK K   1      42.314  17.540 198.977  0.00  0.00    +0.000 C 
BRANCH  20  21
ATOM     21  O5  UNK K   1      41.674  17.767 200.329  0.00  0.00    +0.000 OA
BRANCH  21  23
ATOM     22  C21 UNK K   1      37.470  16.511 200.947  0.00  0.00    +0.000 A 
ATOM     23  C24 UNK K   1      40.256  17.296 200.605  0.00  0.00    +0.000 A 
ATOM     24  C26 UNK K   1      38.444  15.940 201.680  0.00  0.00    +0.000 A 
ATOM     25  C27 UNK K   1      37.862  17.548 199.978  0.00  0.00    +0.000 A 
ATOM     26  C30 UNK K   1      39.917  16.361 201.510  0.00  0.00    +0.000 A 
ATOM     27  C31 UNK K   1      39.147  17.904 199.812  0.00  0.00    +0.000 A 
BRANCH  22  29
ATOM     28  O6  UNK K   1      31.515  14.271 202.456  0.00  0.00    +0.000 OA
ATOM     29  N7  UNK K   1      36.038  16.123 201.069  0.00  0.00    +0.000 N 
ATOM     30  N8  UNK K   1      33.270  15.227 201.286  0.00  0.00    +0.000 N 
ATOM     31  C17 UNK K   1      35.325  16.217 202.336  0.00  0.00    +0.000 C 
ATOM     32  C18 UNK K   1      35.319  15.593 199.912  0.00  0.00    +0.000 C 
ATOM     33  C19 UNK K   1      34.164  15.138 202.423  0.00  0.00    +0.000 C 
ATOM     34  C20 UNK K   1      33.758  15.790 200.048  0.00  0.00    +0.000 C 
ATOM     35  C25 UNK K   1      31.920  14.761 201.394  0.00  0.00    +0.000 C 
ATOM     36  C36 UNK K   1      30.964  14.885 200.231  0.00  0.00    +0.000 C 
ENDBRANCH  22  29
ENDBRANCH  21  23
ENDBRANCH  20  21
ENDBRANCH   4  20
TORSDOF 7
REMARK  Name = HEMCA.pdb
REMARK  4 active torsions:
REMARK  status: ('A' for Active; 'I' for Inactive)
REMARK    1  A    between atoms: C5_5  and  O19_19
REMARK    2  A    between atoms: C6_6  and  O18_18
REMARK    3  A    between atoms: C7_7  and  O20_20
REMARK    4  A    between atoms: C17_17  and  O21_21
REMARK                            x       y       z     vdW  Elec       q    Type
REMARK                         _______ _______ _______ _____ _____    ______ ____
ROOT
ATOM      1  C1  UNK H   1      37.742  12.480 198.369  0.00  0.00    +0.000 A 
ATOM      2  C2  UNK H   1      38.220  13.651 198.792  0.00  0.00    +0.000 A 
ATOM      3  C3  UNK H   1      37.859  12.111 196.945  0.00  0.00    +0.000 A 
ATOM      4  C4  UNK H   1      38.845  14.574 197.844  0.00  0.00    +0.000 A 
ATOM      5  C5  UNK H   1      38.417  12.961 196.085  0.00  0.00    +0.000 A 
ATOM      6  C6  UNK H   1      38.931  14.249 196.555  0.00  0.00    +0.000 A 
ATOM      7  C7  UNK H   1      36.381  10.367 198.625  0.00  0.00    +0.000 C 
ATOM      8  C8  UNK H   1      37.052  11.524 199.241  0.00  0.00    +0.000 C 
ATOM      9  C9  UNK H   1      37.113   9.814 197.403  0.00  0.00    +0.000 C 
ATOM     10  O10 UNK H   1      37.414  10.868 196.494  0.00  0.00    +0.000 OA
ATOM     11  C11 UNK H   1      36.082   9.383 199.802  0.00  0.00    +0.000 C 
ATOM     12  C12 UNK H   1      36.098  10.383 200.924  0.00  0.00    +0.000 C 
ATOM     13  C13 UNK H   1      36.791  11.566 200.548  0.00  0.00    +0.000 C 
ATOM     14  C14 UNK H   1      35.671  10.174 202.163  0.00  0.00    +0.000 C 
ATOM     15  C15 UNK H   1      35.907  11.234 203.156  0.00  0.00    +0.000 C 
ATOM     16  C16 UNK H   1      37.127  12.594 201.530  0.00  0.00    +0.000 C 
ATOM     17  C17 UNK H   1      36.693  12.437 202.783  0.00  0.00    +0.000 C 
ATOM     18  O22 UNK H   1      35.501  11.097 204.315  0.00  0.00    +0.000 OA
ENDROOT
BRANCH   6  19
ATOM     19  O18 UNK H   1      39.523  15.129 195.655  0.00  0.00    +0.000 OA
ATOM     20  H9  UNK H   1      40.325  14.651 195.174  0.00  0.00    +0.000 HD
ENDBRANCH   6  19
BRANCH   5  21
ATOM     21  O19 UNK H   1      38.536  12.613 194.745  0.00  0.00    +0.000 OA
ATOM     22  H10 UNK H   1      38.360  13.457 194.146  0.00  0.00    +0.000 HD
ENDBRANCH   5  21
BRANCH   7  23
ATOM     23  O20 UNK H   1      35.133  10.912 198.193  0.00  0.00    +0.000 OA
ATOM     24  H11 UNK H   1      34.528  11.108 199.029  0.00  0.00    +0.000 HD
ENDBRANCH   7  23
BRANCH  17  25
ATOM     25  O21 UNK H   1      36.980  13.403 203.741  0.00  0.00    +0.000 OA
ATOM     26  H12 UNK H   1      36.086  13.841 204.074  0.00  0.00    +0.000 HD
ENDBRANCH  17  25
TORSDOF 4
ENDMDL
MODEL 4
REMARK VINA RESULT:    -3.709      3.989      7.984
REMARK INTER + INTRA:          -7.321
REMARK INTER:                  -5.741
REMARK INTRA:                  -1.580
REMARK UNBOUND:                -1.660
REMARK  Name = KETCA.pdb
REMARK  8 active torsions:
REMARK  status: ('A' for Active; 'I' for Inactive)
REMARK    1  A    between atoms: O5_5  and  C16_16
REMARK    2  A    between atoms: O5_5  and  C24_24
REMARK    3  A    between atoms: N7_7  and  C21_21
REMARK    4  A    between atoms: N9_9  and  C14_14
REMARK    5  A    between atoms: C11_11  and  C14_14
REMARK    6  A    between atoms: C11_11  and  C15_15
REMARK    7  A    between atoms: C12_12  and  C16_16
REMARK    8  A    between atoms: C25_25  and  C36_36
REMARK                            x       y       z     vdW  Elec       q    Type
REMARK                         _______ _______ _______ _____ _____    ______ ____
ROOT
ATOM      1  O3  UNK K   1      37.633  16.023 195.445  0.00  0.00    +0.000 OA
ATOM      2  O4  UNK K   1      38.975  16.633 193.639  0.00  0.00    +0.000 OA
ATOM      3  C11 UNK K   1      38.456  17.161 194.888  0.00  0.00    +0.000 C 
ATOM      4  C12 UNK K   1      37.661  14.977 194.399  0.00  0.00    +0.000 C 
ATOM      5  C13 UNK K   1      37.808  15.853 193.154  0.00  0.00    +0.000 C 
ENDROOT
BRANCH   3   8
ATOM      6 CL1  UNK K   1      41.160  18.876 194.184  0.00  0.00    +0.000 Cl
ATOM      7 CL2  UNK K   1      42.278  18.849 199.415  0.00  0.00    +0.000 Cl
ATOM      8  C15 UNK K   1      39.535  17.632 195.961  0.00  0.00    +0.000 A 
ATOM      9  C22 UNK K   1      40.640  18.381 195.737  0.00  0.00    +0.000 A 
ATOM     10  C23 UNK K   1      39.230  17.273 197.363  0.00  0.00    +0.000 A 
ATOM     11  C32 UNK K   1      41.531  18.741 196.863  0.00  0.00    +0.000 A 
ATOM     12  C33 UNK K   1      40.044  17.605 198.365  0.00  0.00    +0.000 A 
ATOM     13  C34 UNK K   1      41.232  18.394 198.109  0.00  0.00    +0.000 A 
ENDBRANCH   3   8
BRANCH   3  14
ATOM     14  C14 UNK K   1      37.463  18.347 194.473  0.00  0.00    +0.000 C 
BRANCH  14  15
ATOM     15  N9  UNK K   1      36.153  18.415 195.181  0.00  0.00    +0.000 N 
ATOM     16  N10 UNK K   1      34.010  18.410 195.462  0.00  0.00    +0.000 NA
ATOM     17  C28 UNK K   1      35.934  19.006 196.425  0.00  0.00    +0.000 A 
ATOM     18  C29 UNK K   1      34.916  18.085 194.620  0.00  0.00    +0.000 A 
ATOM     19  C35 UNK K   1      34.613  18.990 196.609  0.00  0.00    +0.000 A 
ENDBRANCH  14  15
ENDBRANCH   3  14
BRANCH   4  20
ATOM     20  C16 UNK K   1      36.422  13.873 194.473  0.00  0.00    +0.000 C 
BRANCH  20  21
ATOM     21  O5  UNK K   1      36.303  13.152 195.799  0.00  0.00    +0.000 OA
BRANCH  21  23
ATOM     22  C21 UNK K   1      39.984  11.704 197.796  0.00  0.00    +0.000 A 
ATOM     23  C24 UNK K   1      37.544  12.696 196.548  0.00  0.00    +0.000 A 
ATOM     24  C26 UNK K   1      39.251  12.671 198.380  0.00  0.00    +0.000 A 
ATOM     25  C27 UNK K   1      39.502  11.164 196.514  0.00  0.00    +0.000 A 
ATOM     26  C30 UNK K   1      37.954  13.190 197.729  0.00  0.00    +0.000 A 
ATOM     27  C31 UNK K   1      38.384  11.627 195.931  0.00  0.00    +0.000 A 
BRANCH  22  29
ATOM     28  O6  UNK K   1      45.711   8.952 199.336  0.00  0.00    +0.000 OA
ATOM     29  N7  UNK K   1      41.250  11.186 198.384  0.00  0.00    +0.000 N 
ATOM     30  N8  UNK K   1      43.676  10.040 199.527  0.00  0.00    +0.000 N 
ATOM     31  C17 UNK K   1      42.510  11.243 197.657  0.00  0.00    +0.000 C 
ATOM     32  C18 UNK K   1      41.244  10.565 199.707  0.00  0.00    +0.000 C 
ATOM     33  C19 UNK K   1      43.477  10.062 198.092  0.00  0.00    +0.000 C 
ATOM     34  C20 UNK K   1      42.668  10.618 200.387  0.00  0.00    +0.000 C 
ATOM     35  C25 UNK K   1      44.859   9.453 200.081  0.00  0.00    +0.000 C 
ATOM     36  C36 UNK K   1      45.101   9.460 201.572  0.00  0.00    +0.000 C 
ENDBRANCH  22  29
ENDBRANCH  21  23
ENDBRANCH  20  21
ENDBRANCH   4  20
TORSDOF 7
REMARK  Name = HEMCA.pdb
REMARK  4 active torsions:
REMARK  status: ('A' for Active; 'I' for Inactive)
REMARK    1  A    between atoms: C5_5  and  O19_19
REMARK    2  A    between atoms: C6_6  and  O18_18
REMARK    3  A    between atoms: C7_7  and  O20_20
REMARK    4  A    between atoms: C17_17  and  O21_21
REMARK                            x       y       z     vdW  Elec       q    Type
REMARK                         _______ _______ _______ _____ _____    ______ ____
ROOT
ATOM      1  C1  UNK H   1      42.818  15.358 196.598  0.00  0.00    +0.000 A 
ATOM      2  C2  UNK H   1      41.698  14.639 196.519  0.00  0.00    +0.000 A 
ATOM      3  C3  UNK H   1      43.444  15.879 195.367  0.00  0.00    +0.000 A 
ATOM      4  C4  UNK H   1      41.098  14.357 195.214  0.00  0.00    +0.000 A 
ATOM      5  C5  UNK H   1      42.901  15.608 194.183  0.00  0.00    +0.000 A 
ATOM      6  C6  UNK H   1      41.676  14.810 194.103  0.00  0.00    +0.000 A 
ATOM      7  C7  UNK H   1      44.849  16.255 197.804  0.00  0.00    +0.000 C 
ATOM      8  C8  UNK H   1      43.514  15.638 197.859  0.00  0.00    +0.000 C 
ATOM      9  C9  UNK H   1      45.014  17.258 196.663  0.00  0.00    +0.000 C 
ATOM     10  O10 UNK H   1      44.586  16.678 195.435  0.00  0.00    +0.000 OA
ATOM     11  C11 UNK H   1      45.140  16.750 199.257  0.00  0.00    +0.000 C 
ATOM     12  C12 UNK H   1      44.206  15.827 199.987  0.00  0.00    +0.000 C 
ATOM     13  C13 UNK H   1      43.209  15.311 199.115  0.00  0.00    +0.000 C 
ATOM     14  C14 UNK H   1      44.182  15.614 201.296  0.00  0.00    +0.000 C 
ATOM     15  C15 UNK H   1      43.093  14.784 201.835  0.00  0.00    +0.000 C 
ATOM     16  C16 UNK H   1      42.062  14.565 199.629  0.00  0.00    +0.000 C 
ATOM     17  C17 UNK H   1      42.012  14.304 200.937  0.00  0.00    +0.000 C 
ATOM     18  O22 UNK H   1      43.047  14.534 203.044  0.00  0.00    +0.000 OA
ENDROOT
BRANCH   6  19
ATOM     19  O18 UNK H   1      41.105  14.538 192.864  0.00  0.00    +0.000 OA
ATOM     20  H9  UNK H   1      40.206  14.012 193.000  0.00  0.00    +0.000 HD
ENDBRANCH   6  19
BRANCH   5  21
ATOM     21  O19 UNK H   1      43.483  16.104 193.023  0.00  0.00    +0.000 OA
ATOM     22  H10 UNK H   1      44.264  16.759 193.275  0.00  0.00    +0.000 HD
ENDBRANCH   5  21
BRANCH   7  23
ATOM     23  O20 UNK H   1      45.707  15.141 197.549  0.00  0.00    +0.000 OA
ATOM     24  H11 UNK H   1      45.523  14.770 196.584  0.00  0.00    +0.000 HD
ENDBRANCH   7  23
BRANCH  17  25
ATOM     25  O21 UNK H   1      40.945  13.583 201.459  0.00  0.00    +0.000 OA
ATOM     26  H12 UNK H   1      40.175  14.243 201.730  0.00  0.00    +0.000 HD
ENDBRANCH  17  25
TORSDOF 4
ENDMDL
MODEL 5
REMARK VINA RESULT:    -3.708      4.248      8.977
REMARK INTER + INTRA:          -7.320
REMARK INTER:                  -5.763
REMARK INTRA:                  -1.556
REMARK UNBOUND:                -1.660
REMARK  Name = KETCA.pdb
REMARK  8 active torsions:
REMARK  status: ('A' for Active; 'I' for Inactive)
REMARK    1  A    between atoms: O5_5  and  C16_16
REMARK    2  A    between atoms: O5_5  and  C24_24
REMARK    3  A    between atoms: N7_7  and  C21_21
REMARK    4  A    between atoms: N9_9  and  C14_14
REMARK    5  A    between atoms: C11_11  and  C14_14
REMARK    6  A    between atoms: C11_11  and  C15_15
REMARK    7  A    between atoms: C12_12  and  C16_16
REMARK    8  A    between atoms: C25_25  and  C36_36
REMARK                            x       y       z     vdW  Elec       q    Type
REMARK                         _______ _______ _______ _____ _____    ______ ____
ROOT
ATOM      1  O3  UNK K   1      40.226  12.252 197.953  0.00  0.00    +0.000 OA
ATOM      2  O4  UNK K   1      41.076  14.409 197.710  0.00  0.00    +0.000 OA
ATOM      3  C11 UNK K   1      41.471  13.019 197.572  0.00  0.00    +0.000 C 
ATOM      4  C12 UNK K   1      39.258  13.281 198.392  0.00  0.00    +0.000 C 
ATOM      5  C13 UNK K   1      40.223  14.341 198.923  0.00  0.00    +0.000 C 
ENDROOT
BRANCH   3   8
ATOM      6 CL1  UNK K   1      43.432  14.794 195.634  0.00  0.00    +0.000 Cl
ATOM      7 CL2  UNK K   1      43.227  10.777 192.108  0.00  0.00    +0.000 Cl
ATOM      8  C15 UNK K   1      41.972  12.566 196.128  0.00  0.00    +0.000 A 
ATOM      9  C22 UNK K   1      42.817  13.231 195.308  0.00  0.00    +0.000 A 
ATOM     10  C23 UNK K   1      41.517  11.227 195.694  0.00  0.00    +0.000 A 
ATOM     11  C32 UNK K   1      43.190  12.650 193.999  0.00  0.00    +0.000 A 
ATOM     12  C33 UNK K   1      41.862  10.718 194.511  0.00  0.00    +0.000 A 
ATOM     13  C34 UNK K   1      42.757  11.448 193.636  0.00  0.00    +0.000 A 
ENDBRANCH   3   8
BRANCH   3  14
ATOM     14  C14 UNK K   1      42.582  12.772 198.698  0.00  0.00    +0.000 C 
BRANCH  14  15
ATOM     15  N9  UNK K   1      42.487  11.508 199.480  0.00  0.00    +0.000 N 
ATOM     16  N10 UNK K   1      42.275  10.206 201.194  0.00  0.00    +0.000 NA
ATOM     17  C28 UNK K   1      42.971  10.265 199.073  0.00  0.00    +0.000 A 
ATOM     18  C29 UNK K   1      42.089  11.415 200.817  0.00  0.00    +0.000 A 
ATOM     19  C35 UNK K   1      42.828   9.455 200.123  0.00  0.00    +0.000 A 
ENDBRANCH  14  15
ENDBRANCH   3  14
BRANCH   4  20
ATOM     20  C16 UNK K   1      38.039  12.726 199.376  0.00  0.00    +0.000 C 
BRANCH  20  21
ATOM     21  O5  UNK K   1      37.265  11.552 198.815  0.00  0.00    +0.000 OA
BRANCH  21  23
ATOM     22  C21 UNK K   1      35.974  11.663 194.578  0.00  0.00    +0.000 A 
ATOM     23  C24 UNK K   1      36.857  11.520 197.352  0.00  0.00    +0.000 A 
ATOM     24  C26 UNK K   1      36.839  10.713 194.980  0.00  0.00    +0.000 A 
ATOM     25  C27 UNK K   1      35.488  12.616 195.589  0.00  0.00    +0.000 A 
ATOM     26  C30 UNK K   1      37.299  10.627 196.449  0.00  0.00    +0.000 A 
ATOM     27  C31 UNK K   1      35.901  12.558 196.866  0.00  0.00    +0.000 A 
BRANCH  22  29
ATOM     28  O6  UNK K   1      34.381  11.147 188.258  0.00  0.00    +0.000 OA
ATOM     29  N7  UNK K   1      35.517  11.790 193.167  0.00  0.00    +0.000 N 
ATOM     30  N8  UNK K   1      34.757  12.038 190.361  0.00  0.00    +0.000 N 
ATOM     31  C17 UNK K   1      34.801  10.715 192.495  0.00  0.00    +0.000 C 
ATOM     32  C18 UNK K   1      35.818  13.001 192.404  0.00  0.00    +0.000 C 
ATOM     33  C19 UNK K   1      35.064  10.741 190.930  0.00  0.00    +0.000 C 
ATOM     34  C20 UNK K   1      34.807  13.209 191.208  0.00  0.00    +0.000 C 
ATOM     35  C25 UNK K   1      34.410  12.154 188.976  0.00  0.00    +0.000 C 
ATOM     36  C36 UNK K   1      34.048  13.493 188.379  0.00  0.00    +0.000 C 
ENDBRANCH  22  29
ENDBRANCH  21  23
ENDBRANCH  20  21
ENDBRANCH   4  20
TORSDOF 7
REMARK  Name = HEMCA.pdb
REMARK  4 active torsions:
REMARK  status: ('A' for Active; 'I' for Inactive)
REMARK    1  A    between atoms: C5_5  and  O19_19
REMARK    2  A    between atoms: C6_6  and  O18_18
REMARK    3  A    between atoms: C7_7  and  O20_20
REMARK    4  A    between atoms: C17_17  and  O21_21
REMARK                            x       y       z     vdW  Elec       q    Type
REMARK                         _______ _______ _______ _____ _____    ______ ____
ROOT
ATOM      1  C1  UNK H   1      39.922  13.809 192.898  0.00  0.00    +0.000 A 
ATOM      2  C2  UNK H   1      39.125  13.394 193.882  0.00  0.00    +0.000 A 
ATOM      3  C3  UNK H   1      40.547  15.144 192.973  0.00  0.00    +0.000 A 
ATOM      4  C4  UNK H   1      38.860  14.265 195.028  0.00  0.00    +0.000 A 
ATOM      5  C5  UNK H   1      40.291  15.936 194.011  0.00  0.00    +0.000 A 
ATOM      6  C6  UNK H   1      39.407  15.478 195.084  0.00  0.00    +0.000 A 
ATOM      7  C7  UNK H   1      40.914  13.667 190.578  0.00  0.00    +0.000 C 
ATOM      8  C8  UNK H   1      40.195  13.023 191.690  0.00  0.00    +0.000 C 
ATOM      9  C9  UNK H   1      41.979  14.663 191.033  0.00  0.00    +0.000 C 
ATOM     10  O10 UNK H   1      41.427  15.573 191.979  0.00  0.00    +0.000 OA
ATOM     11  C11 UNK H   1      41.360  12.500 189.639  0.00  0.00    +0.000 C 
ATOM     12  C12 UNK H   1      40.336  11.485 190.059  0.00  0.00    +0.000 C 
ATOM     13  C13 UNK H   1      39.786  11.806 191.330  0.00  0.00    +0.000 C 
ATOM     14  C14 UNK H   1      40.060  10.348 189.434  0.00  0.00    +0.000 C 
ATOM     15  C15 UNK H   1      39.125   9.417 190.086  0.00  0.00    +0.000 C 
ATOM     16  C16 UNK H   1      38.932  10.862 192.049  0.00  0.00    +0.000 C 
ATOM     17  C17 UNK H   1      38.607   9.717 191.445  0.00  0.00    +0.000 C 
ATOM     18  O22 UNK H   1      38.815   8.359 189.527  0.00  0.00    +0.000 OA
ENDROOT
BRANCH   6  19
ATOM     19  O18 UNK H   1      39.151  16.305 196.173  0.00  0.00    +0.000 OA
ATOM     20  H9  UNK H   1      38.447  15.847 196.803  0.00  0.00    +0.000 HD
ENDBRANCH   6  19
BRANCH   5  21
ATOM     21  O19 UNK H   1      40.885  17.191 194.089  0.00  0.00    +0.000 OA
ATOM     22  H10 UNK H   1      41.907  17.083 194.302  0.00  0.00    +0.000 HD
ENDBRANCH   5  21
BRANCH   7  23
ATOM     23  O20 UNK H   1      39.881  14.390 189.905  0.00  0.00    +0.000 OA
ATOM     24  H11 UNK H   1      39.501  13.808 189.118  0.00  0.00    +0.000 HD
ENDBRANCH   7  23
BRANCH  17  25
ATOM     25  O21 UNK H   1      37.783   8.803 192.091  0.00  0.00    +0.000 OA
ATOM     26  H12 UNK H   1      37.402   9.235 192.969  0.00  0.00    +0.000 HD
ENDBRANCH  17  25
TORSDOF 4
ENDMDL
MODEL 6
REMARK VINA RESULT:    -3.708      3.007      6.317
REMARK INTER + INTRA:          -7.319
REMARK INTER:                  -5.757
REMARK INTRA:                  -1.561
REMARK UNBOUND:                -1.660
REMARK  Name = KETCA.pdb
REMARK  8 active torsions:
REMARK  status: ('A' for Active; 'I' for Inactive)
REMARK    1  A    between atoms: O5_5  and  C16_16
REMARK    2  A    between atoms: O5_5  and  C24_24
REMARK    3  A    between atoms: N7_7  and  C21_21
REMARK    4  A    between atoms: N9_9  and  C14_14
REMARK    5  A    between atoms: C11_11  and  C14_14
REMARK    6  A    between atoms: C11_11  and  C15_15
REMARK    7  A    between atoms: C12_12  and  C16_16
REMARK    8  A    between atoms: C25_25  and  C36_36
REMARK                            x       y       z     vdW  Elec       q    Type
REMARK                         _______ _______ _______ _____ _____    ______ ____
ROOT
ATOM      1  O3  UNK K   1      39.627  14.315 193.391  0.00  0.00    +0.000 OA
ATOM      2  O4  UNK K   1      37.714  13.291 192.541  0.00  0.00    +0.000 OA
ATOM      3  C11 UNK K   1      38.865  13.011 193.379  0.00  0.00    +0.000 C 
ATOM      4  C12 UNK K   1      38.897  15.198 192.455  0.00  0.00    +0.000 C 
ATOM      5  C13 UNK K   1      38.326  14.151 191.497  0.00  0.00    +0.000 C 
ENDROOT
BRANCH   3   8
ATOM      6 CL1  UNK K   1      36.516  10.884 194.222  0.00  0.00    +0.000 Cl
ATOM      7 CL2  UNK K   1      38.138  11.429 199.289  0.00  0.00    +0.000 Cl
ATOM      8  C15 UNK K   1      38.557  12.543 194.871  0.00  0.00    +0.000 A 
ATOM      9  C22 UNK K   1      37.637  11.635 195.272  0.00  0.00    +0.000 A 
ATOM     10  C23 UNK K   1      39.445  13.114 195.907  0.00  0.00    +0.000 A 
ATOM     11  C32 UNK K   1      37.497  11.308 196.709  0.00  0.00    +0.000 A 
ATOM     12  C33 UNK K   1      39.305  12.809 197.197  0.00  0.00    +0.000 A 
ATOM     13  C34 UNK K   1      38.306  11.846 197.615  0.00  0.00    +0.000 A 
ENDBRANCH   3   8
BRANCH   3  14
ATOM     14  C14 UNK K   1      39.729  11.927 192.576  0.00  0.00    +0.000 C 
BRANCH  14  15
ATOM     15  N9  UNK K   1      41.205  12.127 192.540  0.00  0.00    +0.000 N 
ATOM     16  N10 UNK K   1      43.177  12.453 191.716  0.00  0.00    +0.000 NA
ATOM     17  C28 UNK K   1      42.100  11.739 193.537  0.00  0.00    +0.000 A 
ATOM     18  C29 UNK K   1      41.935  12.541 191.422  0.00  0.00    +0.000 A 
ATOM     19  C35 UNK K   1      43.318  11.954 193.038  0.00  0.00    +0.000 A 
ENDBRANCH  14  15
ENDBRANCH   3  14
BRANCH   4  20
ATOM     20  C16 UNK K   1      39.785  16.461 191.841  0.00  0.00    +0.000 C 
BRANCH  20  21
ATOM     21  O5  UNK K   1      40.457  17.323 192.889  0.00  0.00    +0.000 OA
BRANCH  21  23
ATOM     22  C21 UNK K   1      38.135  18.565 196.452  0.00  0.00    +0.000 A 
ATOM     23  C24 UNK K   1      39.719  17.720 194.156  0.00  0.00    +0.000 A 
ATOM     24  C26 UNK K   1      39.224  17.790 196.611  0.00  0.00    +0.000 A 
ATOM     25  C27 UNK K   1      37.781  18.973 195.083  0.00  0.00    +0.000 A 
ATOM     26  C30 UNK K   1      40.072  17.351 195.400  0.00  0.00    +0.000 A 
ATOM     27  C31 UNK K   1      38.504  18.577 194.022  0.00  0.00    +0.000 A 
BRANCH  22  29
ATOM     28  O6  UNK K   1      33.610  20.733 200.644  0.00  0.00    +0.000 OA
ATOM     29  N7  UNK K   1      37.281  18.997 197.593  0.00  0.00    +0.000 N 
ATOM     30  N8  UNK K   1      35.622  19.979 199.782  0.00  0.00    +0.000 N 
ATOM     31  C17 UNK K   1      35.870  18.648 197.668  0.00  0.00    +0.000 C 
ATOM     32  C18 UNK K   1      37.843  19.828 198.656  0.00  0.00    +0.000 C 
ATOM     33  C19 UNK K   1      35.050  19.743 198.472  0.00  0.00    +0.000 C 
ATOM     34  C20 UNK K   1      37.024  19.698 199.999  0.00  0.00    +0.000 C 
ATOM     35  C25 UNK K   1      34.806  20.486 200.844  0.00  0.00    +0.000 C 
ATOM     36  C36 UNK K   1      35.379  20.698 202.226  0.00  0.00    +0.000 C 
ENDBRANCH  22  29
ENDBRANCH  21  23
ENDBRANCH  20  21
ENDBRANCH   4  20
TORSDOF 7
REMARK  Name = HEMCA.pdb
REMARK  4 active torsions:
REMARK  status: ('A' for Active; 'I' for Inactive)
REMARK    1  A    between atoms: C5_5  and  O19_19
REMARK    2  A    between atoms: C6_6  and  O18_18
REMARK    3  A    between atoms: C7_7  and  O20_20
REMARK    4  A    between atoms: C17_17  and  O21_21
REMARK                            x       y       z     vdW  Elec       q    Type
REMARK                         _______ _______ _______ _____ _____    ______ ____
ROOT
ATOM      1  C1  UNK H   1      35.696  14.458 196.984  0.00  0.00    +0.000 A 
ATOM      2  C2  UNK H   1      36.487  15.297 196.316  0.00  0.00    +0.000 A 
ATOM      3  C3  UNK H   1      34.643  13.712 196.266  0.00  0.00    +0.000 A 
ATOM      4  C4  UNK H   1      36.304  15.489 194.876  0.00  0.00    +0.000 A 
ATOM      5  C5  UNK H   1      34.474  13.901 194.960  0.00  0.00    +0.000 A 
ATOM      6  C6  UNK H   1      35.340  14.832 194.234  0.00  0.00    +0.000 A 
ATOM      7  C7  UNK H   1      34.717  13.467 199.093  0.00  0.00    +0.000 C 
ATOM      8  C8  UNK H   1      35.775  14.251 198.434  0.00  0.00    +0.000 C 
ATOM      9  C9  UNK H   1      34.185  12.317 198.238  0.00  0.00    +0.000 C 
ATOM     10  O10 UNK H   1      33.842  12.790 196.939  0.00  0.00    +0.000 OA
ATOM     11  C11 UNK H   1      35.273  13.125 200.512  0.00  0.00    +0.000 C 
ATOM     12  C12 UNK H   1      36.271  14.241 200.624  0.00  0.00    +0.000 C 
ATOM     13  C13 UNK H   1      36.600  14.768 199.345  0.00  0.00    +0.000 C 
ATOM     14  C14 UNK H   1      36.903  14.618 201.730  0.00  0.00    +0.000 C 
ATOM     15  C15 UNK H   1      37.954  15.639 201.604  0.00  0.00    +0.000 C 
ATOM     16  C16 UNK H   1      37.702  15.711 199.172  0.00  0.00    +0.000 C 
ATOM     17  C17 UNK H   1      38.348  16.137 200.261  0.00  0.00    +0.000 C 
ATOM     18  O22 UNK H   1      38.549  16.042 202.609  0.00  0.00    +0.000 OA
ENDROOT
BRANCH   6  19
ATOM     19  O18 UNK H   1      35.166  15.018 192.866  0.00  0.00    +0.000 OA
ATOM     20  H9  UNK H   1      34.209  14.684 192.586  0.00  0.00    +0.000 HD
ENDBRANCH   6  19
BRANCH   5  21
ATOM     21  O19 UNK H   1      33.489  13.194 194.280  0.00  0.00    +0.000 OA
ATOM     22  H10 UNK H   1      32.976  13.842 193.632  0.00  0.00    +0.000 HD
ENDBRANCH   5  21
BRANCH   7  23
ATOM     23  O20 UNK H   1      33.668  14.424 199.261  0.00  0.00    +0.000 OA
ATOM     24  H11 UNK H   1      32.761  13.923 199.428  0.00  0.00    +0.000 HD
ENDBRANCH   7  23
BRANCH  17  25
ATOM     25  O21 UNK H   1      39.390  17.047 200.136  0.00  0.00    +0.000 OA
ATOM     26  H12 UNK H   1      40.087  16.688 199.437  0.00  0.00    +0.000 HD
ENDBRANCH  17  25
TORSDOF 4
ENDMDL
MODEL 7
REMARK VINA RESULT:    -3.707      4.440      9.009
REMARK INTER + INTRA:          -7.318
REMARK INTER:                  -5.749
REMARK INTRA:                  -1.569
REMARK UNBOUND:                -1.660
REMARK  Name = KETCA.pdb
REMARK  8 active torsions:
REMARK  status: ('A' for Active; 'I' for Inactive)
REMARK    1  A    between atoms: O5_5  and  C16_16
REMARK    2  A    between atoms: O5_5  and  C24_24
REMARK    3  A    between atoms: N7_7  and  C21_21
REMARK    4  A    between atoms: N9_9  and  C14_14
REMARK    5  A    between atoms: C11_11  and  C14_14
REMARK    6  A    between atoms: C11_11  and  C15_15
REMARK    7  A    between atoms: C12_12  and  C16_16
REMARK    8  A    between atoms: C25_25  and  C36_36
REMARK                            x       y       z     vdW  Elec       q    Type
REMARK                         _______ _______ _______ _____ _____    ______ ____
ROOT
ATOM      1  O3  UNK K   1      42.120  18.976 193.560  0.00  0.00    +0.000 OA
ATOM      2  O4  UNK K   1      42.750  19.733 195.673  0.00  0.00    +0.000 OA
ATOM      3  C11 UNK K   1      41.993  20.147 194.505  0.00  0.00    +0.000 C 
ATOM      4  C12 UNK K   1      43.044  18.035 194.232  0.00  0.00    +0.000 C 
ATOM      5  C13 UNK K   1      43.889  19.025 195.036  0.00  0.00    +0.000 C 
ENDROOT
BRANCH   3   8
ATOM      6 CL1  UNK K   1      40.840  21.868 197.047  0.00  0.00    +0.000 Cl
ATOM      7 CL2  UNK K   1      35.960  21.322 194.928  0.00  0.00    +0.000 Cl
ATOM      8  C15 UNK K   1      40.456  20.493 194.744  0.00  0.00    +0.000 A 
ATOM      9  C22 UNK K   1      39.930  21.238 195.744  0.00  0.00    +0.000 A 
ATOM     10  C23 UNK K   1      39.530  20.007 193.698  0.00  0.00    +0.000 A 
ATOM     11  C32 UNK K   1      38.469  21.472 195.803  0.00  0.00    +0.000 A 
ATOM     12  C33 UNK K   1      38.217  20.227 193.766  0.00  0.00    +0.000 A 
ATOM     13  C34 UNK K   1      37.664  21.014 194.851  0.00  0.00    +0.000 A 
ENDBRANCH   3   8
BRANCH   3  14
ATOM     14  C14 UNK K   1      42.799  21.385 193.887  0.00  0.00    +0.000 C 
BRANCH  14  15
ATOM     15  N9  UNK K   1      42.953  21.423 192.406  0.00  0.00    +0.000 N 
ATOM     16  N10 UNK K   1      43.936  21.454 190.480  0.00  0.00    +0.000 NA
ATOM     17  C28 UNK K   1      42.002  21.898 191.504  0.00  0.00    +0.000 A 
ATOM     18  C29 UNK K   1      44.144  21.185 191.714  0.00  0.00    +0.000 A 
ATOM     19  C35 UNK K   1      42.599  21.904 190.311  0.00  0.00    +0.000 A 
ENDBRANCH  14  15
ENDBRANCH   3  14
BRANCH   4  20
ATOM     20  C16 UNK K   1      43.801  16.952 193.225  0.00  0.00    +0.000 C 
BRANCH  20  21
ATOM     21  O5  UNK K   1      42.862  16.119 192.380  0.00  0.00    +0.000 OA
BRANCH  21  23
ATOM     22  C21 UNK K   1      39.222  14.426 194.256  0.00  0.00    +0.000 A 
ATOM     23  C24 UNK K   1      41.571  15.571 192.965  0.00  0.00    +0.000 A 
ATOM     24  C26 UNK K   1      39.096  15.322 193.259  0.00  0.00    +0.000 A 
ATOM     25  C27 UNK K   1      40.584  14.043 194.661  0.00  0.00    +0.000 A 
ATOM     26  C30 UNK K   1      40.336  15.921 192.566  0.00  0.00    +0.000 A 
ATOM     27  C31 UNK K   1      41.669  14.577 194.075  0.00  0.00    +0.000 A 
BRANCH  22  29
ATOM     28  O6  UNK K   1      34.862  11.458 198.120  0.00  0.00    +0.000 OA
ATOM     29  N7  UNK K   1      38.051  13.835 194.961  0.00  0.00    +0.000 N 
ATOM     30  N8  UNK K   1      35.807  12.549 196.309  0.00  0.00    +0.000 N 
ATOM     31  C17 UNK K   1      37.890  13.948 196.403  0.00  0.00    +0.000 C 
ATOM     32  C18 UNK K   1      37.045  13.085 194.211  0.00  0.00    +0.000 C 
ATOM     33  C19 UNK K   1      37.077  12.716 196.987  0.00  0.00    +0.000 C 
ATOM     34  C20 UNK K   1      35.656  13.051 194.962  0.00  0.00    +0.000 C 
ATOM     35  C25 UNK K   1      34.718  11.893 196.970  0.00  0.00    +0.000 C 
ATOM     36  C36 UNK K   1      33.377  11.749 196.292  0.00  0.00    +0.000 C 
ENDBRANCH  22  29
ENDBRANCH  21  23
ENDBRANCH  20  21
ENDBRANCH   4  20
TORSDOF 7
REMARK  Name = HEMCA.pdb
REMARK  4 active torsions:
REMARK  status: ('A' for Active; 'I' for Inactive)
REMARK    1  A    between atoms: C5_5  and  O19_19
REMARK    2  A    between atoms: C6_6  and  O18_18
REMARK    3  A    between atoms: C7_7  and  O20_20
REMARK    4  A    between atoms: C17_17  and  O21_21
REMARK                            x       y       z     vdW  Elec       q    Type
REMARK                         _______ _______ _______ _____ _____    ______ ____
ROOT
ATOM      1  C1  UNK H   1      38.220  18.118 197.143  0.00  0.00    +0.000 A 
ATOM      2  C2  UNK H   1      38.998  17.436 196.303  0.00  0.00    +0.000 A 
ATOM      3  C3  UNK H   1      38.807  18.738 198.347  0.00  0.00    +0.000 A 
ATOM      4  C4  UNK H   1      40.428  17.290 196.581  0.00  0.00    +0.000 A 
ATOM      5  C5  UNK H   1      40.105  18.591 198.601  0.00  0.00    +0.000 A 
ATOM      6  C6  UNK H   1      40.952  17.832 197.679  0.00  0.00    +0.000 A 
ATOM      7  C7  UNK H   1      35.985  18.853 198.065  0.00  0.00    +0.000 C 
ATOM      8  C8  UNK H   1      36.771  18.264 196.968  0.00  0.00    +0.000 C 
ATOM      9  C9  UNK H   1      36.724  19.955 198.824  0.00  0.00    +0.000 C 
ATOM     10  O10 UNK H   1      38.018  19.502 199.208  0.00  0.00    +0.000 OA
ATOM     11  C11 UNK H   1      34.596  19.203 197.441  0.00  0.00    +0.000 C 
ATOM     12  C12 UNK H   1      34.630  18.238 196.291  0.00  0.00    +0.000 C 
ATOM     13  C13 UNK H   1      35.960  17.828 196.004  0.00  0.00    +0.000 C 
ATOM     14  C14 UNK H   1      33.603  17.904 195.520  0.00  0.00    +0.000 C 
ATOM     15  C15 UNK H   1      33.872  17.052 194.351  0.00  0.00    +0.000 C 
ATOM     16  C16 UNK H   1      36.276  17.063 194.799  0.00  0.00    +0.000 C 
ATOM     17  C17 UNK H   1      35.269  16.682 194.010  0.00  0.00    +0.000 C 
ATOM     18  O22 UNK H   1      32.943  16.691 193.622  0.00  0.00    +0.000 OA
ENDROOT
BRANCH   6  19
ATOM     19  O18 UNK H   1      42.310  17.689 197.943  0.00  0.00    +0.000 OA
ATOM     20  H9  UNK H   1      42.443  17.374 198.936  0.00  0.00    +0.000 HD
ENDBRANCH   6  19
BRANCH   5  21
ATOM     21  O19 UNK H   1      40.661  19.181 199.730  0.00  0.00    +0.000 OA
ATOM     22  H10 UNK H   1      40.530  20.221 199.684  0.00  0.00    +0.000 HD
ENDBRANCH   5  21
BRANCH   7  23
ATOM     23  O20 UNK H   1      35.793  17.749 198.951  0.00  0.00    +0.000 OA
ATOM     24  H11 UNK H   1      34.788  17.712 199.253  0.00  0.00    +0.000 HD
ENDBRANCH   7  23
BRANCH  17  25
ATOM     25  O21 UNK H   1      35.530  15.940 192.864  0.00  0.00    +0.000 OA
ATOM     26  H12 UNK H   1      34.626  15.713 192.380  0.00  0.00    +0.000 HD
ENDBRANCH  17  25
TORSDOF 4
ENDMDL
MODEL 8
REMARK VINA RESULT:    -3.707      3.515      7.324
REMARK INTER + INTRA:          -7.318
REMARK INTER:                  -5.764
REMARK INTRA:                  -1.554
REMARK UNBOUND:                -1.660
REMARK  Name = KETCA.pdb
REMARK  8 active torsions:
REMARK  status: ('A' for Active; 'I' for Inactive)
REMARK    1  A    between atoms: O5_5  and  C16_16
REMARK    2  A    between atoms: O5_5  and  C24_24
REMARK    3  A    between atoms: N7_7  and  C21_21
REMARK    4  A    between atoms: N9_9  and  C14_14
REMARK    5  A    between atoms: C11_11  and  C14_14
REMARK    6  A    between atoms: C11_11  and  C15_15
REMARK    7  A    between atoms: C12_12  and  C16_16
REMARK    8  A    between atoms: C25_25  and  C36_36
REMARK                            x       y       z     vdW  Elec       q    Type
REMARK                         _______ _______ _______ _____ _____    ______ ____
ROOT
ATOM      1  O3  UNK K   1      36.682  18.088 196.443  0.00  0.00    +0.000 OA
ATOM      2  O4  UNK K   1      38.039  19.897 197.011  0.00  0.00    +0.000 OA
ATOM      3  C11 UNK K   1      36.786  19.266 197.383  0.00  0.00    +0.000 C 
ATOM      4  C12 UNK K   1      37.839  18.220 195.530  0.00  0.00    +0.000 C 
ATOM      5  C13 UNK K   1      38.006  19.740 195.535  0.00  0.00    +0.000 C 
ENDROOT
BRANCH   3   8
ATOM      6 CL1  UNK K   1      37.876  20.936 199.986  0.00  0.00    +0.000 Cl
ATOM      7 CL2  UNK K   1      35.975  16.983 203.048  0.00  0.00    +0.000 Cl
ATOM      8  C15 UNK K   1      36.663  18.773 198.894  0.00  0.00    +0.000 A 
ATOM      9  C22 UNK K   1      37.049  19.438 200.007  0.00  0.00    +0.000 A 
ATOM     10  C23 UNK K   1      35.971  17.479 199.081  0.00  0.00    +0.000 A 
ATOM     11  C32 UNK K   1      36.844  18.831 201.341  0.00  0.00    +0.000 A 
ATOM     12  C33 UNK K   1      35.795  16.946 200.290  0.00  0.00    +0.000 A 
ATOM     13  C34 UNK K   1      36.226  17.663 201.473  0.00  0.00    +0.000 A 
ENDBRANCH   3   8
BRANCH   3  14
ATOM     14  C14 UNK K   1      35.642  20.320 197.001  0.00  0.00    +0.000 C 
BRANCH  14  15
ATOM     15  N9  UNK K   1      34.446  19.794 196.285  0.00  0.00    +0.000 N 
ATOM     16  N10 UNK K   1      32.992  19.535 194.706  0.00  0.00    +0.000 NA
ATOM     17  C28 UNK K   1      33.333  19.209 196.889  0.00  0.00    +0.000 A 
ATOM     18  C29 UNK K   1      34.166  19.993 194.930  0.00  0.00    +0.000 A 
ATOM     19  C35 UNK K   1      32.439  19.033 195.914  0.00  0.00    +0.000 A 
ENDBRANCH  14  15
ENDBRANCH   3  14
BRANCH   4  20
ATOM     20  C16 UNK K   1      37.686  17.424 194.080  0.00  0.00    +0.000 C 
BRANCH  20  21
ATOM     21  O5  UNK K   1      37.341  15.955 194.204  0.00  0.00    +0.000 OA
BRANCH  21  23
ATOM     22  C21 UNK K   1      39.481  13.498 197.206  0.00  0.00    +0.000 A 
ATOM     23  C24 UNK K   1      38.004  15.089 195.261  0.00  0.00    +0.000 A 
ATOM     24  C26 UNK K   1      38.149  13.661 197.314  0.00  0.00    +0.000 A 
ATOM     25  C27 UNK K   1      40.158  14.143 196.068  0.00  0.00    +0.000 A 
ATOM     26  C30 UNK K   1      37.363  14.492 196.280  0.00  0.00    +0.000 A 
ATOM     27  C31 UNK K   1      39.481  14.885 195.176  0.00  0.00    +0.000 A 
BRANCH  22  29
ATOM     28  O6  UNK K   1      43.904  10.549 201.013  0.00  0.00    +0.000 OA
ATOM     29  N7  UNK K   1      40.279  12.716 198.190  0.00  0.00    +0.000 N 
ATOM     30  N8  UNK K   1      41.892  11.106 200.011  0.00  0.00    +0.000 N 
ATOM     31  C17 UNK K   1      41.397  13.308 198.911  0.00  0.00    +0.000 C 
ATOM     32  C18 UNK K   1      39.976  11.305 198.425  0.00  0.00    +0.000 C 
ATOM     33  C19 UNK K   1      42.482  12.213 199.286  0.00  0.00    +0.000 C 
ATOM     34  C20 UNK K   1      40.485  10.823 199.841  0.00  0.00    +0.000 C 
ATOM     35  C25 UNK K   1      42.697  10.305 200.883  0.00  0.00    +0.000 C 
ATOM     36  C36 UNK K   1      42.087   9.174 201.677  0.00  0.00    +0.000 C 
ENDBRANCH  22  29
ENDBRANCH  21  23
ENDBRANCH  20  21
ENDBRANCH   4  20
TORSDOF 7
REMARK  Name = HEMCA.pdb
REMARK  4 active torsions:
REMARK  status: ('A' for Active; 'I' for Inactive)
REMARK    1  A    between atoms: C5_5  and  O19_19
REMARK    2  A    between atoms: C6_6  and  O18_18
REMARK    3  A    between atoms: C7_7  and  O20_20
REMARK    4  A    between atoms: C17_17  and  O21_21
REMARK                            x       y       z     vdW  Elec       q    Type
REMARK                         _______ _______ _______ _____ _____    ______ ____
ROOT
ATOM      1  C1  UNK H   1      39.766  16.823 200.629  0.00  0.00    +0.000 A 
ATOM      2  C2  UNK H   1      39.502  16.416 199.388  0.00  0.00    +0.000 A 
ATOM      3  C3  UNK H   1      40.487  18.093 200.848  0.00  0.00    +0.000 A 
ATOM      4  C4  UNK H   1      39.938  17.217 198.244  0.00  0.00    +0.000 A 
ATOM      5  C5  UNK H   1      40.893  18.810 199.803  0.00  0.00    +0.000 A 
ATOM      6  C6  UNK H   1      40.608  18.352 198.442  0.00  0.00    +0.000 A 
ATOM      7  C7  UNK H   1      39.942  16.495 203.129  0.00  0.00    +0.000 C 
ATOM      8  C8  UNK H   1      39.414  16.054 201.827  0.00  0.00    +0.000 C 
ATOM      9  C9  UNK H   1      40.044  18.014 203.265  0.00  0.00    +0.000 C 
ATOM     10  O10 UNK H   1      40.724  18.562 202.140  0.00  0.00    +0.000 OA
ATOM     11  C11 UNK H   1      39.110  15.722 204.201  0.00  0.00    +0.000 C 
ATOM     12  C12 UNK H   1      38.675  14.569 203.342  0.00  0.00    +0.000 C 
ATOM     13  C13 UNK H   1      38.774  14.892 201.961  0.00  0.00    +0.000 C 
ATOM     14  C14 UNK H   1      38.122  13.440 203.769  0.00  0.00    +0.000 C 
ATOM     15  C15 UNK H   1      37.631  12.493 202.756  0.00  0.00    +0.000 C 
ATOM     16  C16 UNK H   1      38.209  14.018 200.935  0.00  0.00    +0.000 C 
ATOM     17  C17 UNK H   1      37.668  12.860 201.318  0.00  0.00    +0.000 C 
ATOM     18  O22 UNK H   1      37.135  11.416 203.106  0.00  0.00    +0.000 OA
ENDROOT
BRANCH   6  19
ATOM     19  O18 UNK H   1      41.025  19.110 197.353  0.00  0.00    +0.000 OA
ATOM     20  H9  UNK H   1      40.926  18.544 196.473  0.00  0.00    +0.000 HD
ENDBRANCH   6  19
BRANCH   5  21
ATOM     21  O19 UNK H   1      41.565  20.010 200.005  0.00  0.00    +0.000 OA
ATOM     22  H10 UNK H   1      42.600  19.835 200.014  0.00  0.00    +0.000 HD
ENDBRANCH   5  21
BRANCH   7  23
ATOM     23  O20 UNK H   1      41.265  15.954 203.139  0.00  0.00    +0.000 OA
ATOM     24  H11 UNK H   1      41.559  15.766 204.129  0.00  0.00    +0.000 HD
ENDBRANCH   7  23
BRANCH  17  25
ATOM     25  O21 UNK H   1      37.136  11.996 200.367  0.00  0.00    +0.000 OA
ATOM     26  H12 UNK H   1      36.108  12.181 200.262  0.00  0.00    +0.000 HD
ENDBRANCH  17  25
TORSDOF 4
ENDMDL
MODEL 9
REMARK VINA RESULT:    -3.707      4.477      7.771
REMARK INTER + INTRA:          -7.317
REMARK INTER:                  -5.763
REMARK INTRA:                  -1.554
REMARK UNBOUND:                -1.660
REMARK  Name = KETCA.pdb
REMARK  8 active torsions:
REMARK  status: ('A' for Active; 'I' for Inactive)
REMARK    1  A    between atoms: O5_5  and  C16_16
REMARK    2  A    between atoms: O5_5  and  C24_24
REMARK    3  A    between atoms: N7_7  and  C21_21
REMARK    4  A    between atoms: N9_9  and  C14_14
REMARK    5  A    between atoms: C11_11  and  C14_14
REMARK    6  A    between atoms: C11_11  and  C15_15
REMARK    7  A    between atoms: C12_12  and  C16_16
REMARK    8  A    between atoms: C25_25  and  C36_36
REMARK                            x       y       z     vdW  Elec       q    Type
REMARK                         _______ _______ _______ _____ _____    ______ ____
ROOT
ATOM      1  O3  UNK K   1      42.641  11.936 194.262  0.00  0.00    +0.000 OA
ATOM      2  O4  UNK K   1      44.357  12.916 195.500  0.00  0.00    +0.000 OA
ATOM      3  C11 UNK K   1      43.778  12.927 194.169  0.00  0.00    +0.000 C 
ATOM      4  C12 UNK K   1      42.746  11.355 195.619  0.00  0.00    +0.000 C 
ATOM      5  C13 UNK K   1      44.255  11.475 195.841  0.00  0.00    +0.000 C 
ENDROOT
BRANCH   3   8
ATOM      6 CL1  UNK K   1      45.295  15.799 194.620  0.00  0.00    +0.000 Cl
ATOM      7 CL2  UNK K   1      41.336  18.083 191.842  0.00  0.00    +0.000 Cl
ATOM      8  C15 UNK K   1      43.237  14.331 193.644  0.00  0.00    +0.000 A 
ATOM      9  C22 UNK K   1      43.842  15.537 193.757  0.00  0.00    +0.000 A 
ATOM     10  C23 UNK K   1      41.974  14.274 192.876  0.00  0.00    +0.000 A 
ATOM     11  C32 UNK K   1      43.198  16.744 193.192  0.00  0.00    +0.000 A 
ATOM     12  C33 UNK K   1      41.408  15.372 192.375  0.00  0.00    +0.000 A 
ATOM     13  C34 UNK K   1      42.059  16.659 192.516  0.00  0.00    +0.000 A 
ENDBRANCH   3   8
BRANCH   3  14
ATOM     14  C14 UNK K   1      44.902  12.318 193.205  0.00  0.00    +0.000 C 
BRANCH  14  15
ATOM     15  N9  UNK K   1      44.462  11.311 192.199  0.00  0.00    +0.000 N 
ATOM     16  N10 UNK K   1      44.323   9.415 191.170  0.00  0.00    +0.000 NA
ATOM     17  C28 UNK K   1      43.924  11.601 190.945  0.00  0.00    +0.000 A 
ATOM     18  C29 UNK K   1      44.710   9.938 192.272  0.00  0.00    +0.000 A 
ATOM     19  C35 UNK K   1      43.822  10.431 190.313  0.00  0.00    +0.000 A 
ENDBRANCH  14  15
ENDBRANCH   3  14
BRANCH   4  20
ATOM     20  C16 UNK K   1      42.012   9.877 195.811  0.00  0.00    +0.000 C 
BRANCH  20  21
ATOM     21  O5  UNK K   1      40.570   9.829 195.353  0.00  0.00    +0.000 OA
BRANCH  21  23
ATOM     22  C21 UNK K   1      37.834  13.105 196.540  0.00  0.00    +0.000 A 
ATOM     23  C24 UNK K   1      39.613  10.961 195.684  0.00  0.00    +0.000 A 
ATOM     24  C26 UNK K   1      38.102  12.908 195.236  0.00  0.00    +0.000 A 
ATOM     25  C27 UNK K   1      38.464  12.195 197.512  0.00  0.00    +0.000 A 
ATOM     26  C30 UNK K   1      39.033  11.768 194.778  0.00  0.00    +0.000 A 
ATOM     27  C31 UNK K   1      39.292  11.213 197.120  0.00  0.00    +0.000 A 
BRANCH  22  29
ATOM     28  O6  UNK K   1      34.440  17.713 199.702  0.00  0.00    +0.000 OA
ATOM     29  N7  UNK K   1      36.953  14.203 197.025  0.00  0.00    +0.000 N 
ATOM     30  N8  UNK K   1      35.154  16.259 198.048  0.00  0.00    +0.000 N 
ATOM     31  C17 UNK K   1      37.444  15.238 197.924  0.00  0.00    +0.000 C 
ATOM     32  C18 UNK K   1      35.546  14.242 196.632  0.00  0.00    +0.000 C 
ATOM     33  C19 UNK K   1      36.278  15.803 198.840  0.00  0.00    +0.000 C 
ATOM     34  C20 UNK K   1      34.948  15.701 196.731  0.00  0.00    +0.000 C 
ATOM     35  C25 UNK K   1      34.260  17.250 198.569  0.00  0.00    +0.000 C 
ATOM     36  C36 UNK K   1      33.109  17.765 197.739  0.00  0.00    +0.000 C 
ENDBRANCH  22  29
ENDBRANCH  21  23
ENDBRANCH  20  21
ENDBRANCH   4  20
TORSDOF 7
REMARK  Name = HEMCA.pdb
REMARK  4 active torsions:
REMARK  status: ('A' for Active; 'I' for Inactive)
REMARK    1  A    between atoms: C5_5  and  O19_19
REMARK    2  A    between atoms: C6_6  and  O18_18
REMARK    3  A    between atoms: C7_7  and  O20_20
REMARK    4  A    between atoms: C17_17  and  O21_21
REMARK                            x       y       z     vdW  Elec       q    Type
REMARK                         _______ _______ _______ _____ _____    ______ ____
ROOT
ATOM      1  C1  UNK H   1      41.063  16.628 196.142  0.00  0.00    +0.000 A 
ATOM      2  C2  UNK H   1      40.697  15.347 196.187  0.00  0.00    +0.000 A 
ATOM      3  C3  UNK H   1      42.291  17.065 196.836  0.00  0.00    +0.000 A 
ATOM      4  C4  UNK H   1      41.502  14.379 196.933  0.00  0.00    +0.000 A 
ATOM      5  C5  UNK H   1      43.011  16.182 197.524  0.00  0.00    +0.000 A 
ATOM      6  C6  UNK H   1      42.598  14.778 197.577  0.00  0.00    +0.000 A 
ATOM      7  C7  UNK H   1      40.671  19.078 195.663  0.00  0.00    +0.000 C 
ATOM      8  C8  UNK H   1      40.285  17.671 195.466  0.00  0.00    +0.000 C 
ATOM      9  C9  UNK H   1      42.180  19.286 195.789  0.00  0.00    +0.000 C 
ATOM     10  O10 UNK H   1      42.719  18.390 196.755  0.00  0.00    +0.000 OA
ATOM     11  C11 UNK H   1      39.915  19.877 194.554  0.00  0.00    +0.000 C 
ATOM     12  C12 UNK H   1      38.805  18.897 194.305  0.00  0.00    +0.000 C 
ATOM     13  C13 UNK H   1      39.153  17.598 194.765  0.00  0.00    +0.000 C 
ATOM     14  C14 UNK H   1      37.695  19.131 193.615  0.00  0.00    +0.000 C 
ATOM     15  C15 UNK H   1      36.795  17.995 193.359  0.00  0.00    +0.000 C 
ATOM     16  C16 UNK H   1      38.331  16.433 194.445  0.00  0.00    +0.000 C 
ATOM     17  C17 UNK H   1      37.192  16.627 193.777  0.00  0.00    +0.000 C 
ATOM     18  O22 UNK H   1      35.736  18.171 192.747  0.00  0.00    +0.000 OA
ENDROOT
BRANCH   6  19
ATOM     19  O18 UNK H   1      43.359  13.857 198.288  0.00  0.00    +0.000 OA
ATOM     20  H9  UNK H   1      42.955  13.737 199.250  0.00  0.00    +0.000 HD
ENDBRANCH   6  19
BRANCH   5  21
ATOM     21  O19 UNK H   1      44.172  16.588 198.172  0.00  0.00    +0.000 OA
ATOM     22  H10 UNK H   1      43.959  17.409 198.791  0.00  0.00    +0.000 HD
ENDBRANCH   5  21
BRANCH   7  23
ATOM     23  O20 UNK H   1      40.066  19.404 196.916  0.00  0.00    +0.000 OA
ATOM     24  H11 UNK H   1      40.814  19.614 197.622  0.00  0.00    +0.000 HD
ENDBRANCH   7  23
BRANCH  17  25
ATOM     25  O21 UNK H   1      36.376  15.544 193.470  0.00  0.00    +0.000 OA
ATOM     26  H12 UNK H   1      35.812  15.762 192.611  0.00  0.00    +0.000 HD
ENDBRANCH  17  25
TORSDOF 4
ENDMDL
