MODEL 1
REMARK VINA RESULT:     0.000      0.000      0.000
REMARK INTER + INTRA:           0.000
REMARK INTER:                   0.000
REMARK INTRA:                   0.000
REMARK UNBOUND:                 0.000
REMARK  Name = Brazilin.pdb
REMARK  4 active torsions:
REMARK  status: ('A' for Active; 'I' for Inactive)
REMARK    1  A    between atoms: C3_3  and  O3_6
REMARK    2  A    between atoms: C4_4  and  O4_7
REMARK    3  A    between atoms: C10_10  and  O1_16
REMARK    4  A    between atoms: C19_19  and  O1_21
REMARK                            x       y       z     vdW  Elec       q    Type
REMARK                         _______ _______ _______ _____ _____    ______ ____
ROOT
ATOM      1 3C45 GLC     4      43.061  11.697 198.750  0.00  0.00    +0.000 A 
ATOM      2  C2  GLC     4      43.973  10.563 198.936  0.00  0.00    +0.000 A 
ATOM      3  C3  GLC     4      44.403   9.932 197.839  0.00  0.00    +0.000 A 
ATOM      4  C4  GLC     4      43.981  10.381 196.506  0.00  0.00    +0.000 A 
ATOM      5  C5  GLC     4      43.161  11.428 196.350  0.00  0.00    +0.000 A 
ATOM      6 3C45 GLC     4      42.679  12.098 197.542  0.00  0.00    +0.000 A 
ATOM      7  C9  GLC     4      41.682  13.243 197.687  0.00  0.00    +0.000 C 
ATOM      8  C10 GLC     4      42.188  13.816 198.973  0.00  0.00    +0.000 C 
ATOM      9  C11 GLC     4      42.368  12.524 199.810  0.00  0.00    +0.000 C 
ATOM     10  C12 GLC     4      41.268  14.904 199.516  0.00  0.00    +0.000 C 
ATOM     11  O13 GLC     4      41.205  15.928 198.518  0.00  0.00    +0.000 OA
ATOM     12  C14 GLC     4      41.263  15.687 197.182  0.00  0.00    +0.000 A 
ATOM     13  C15 GLC     4      41.509  14.328 196.665  0.00  0.00    +0.000 A 
ATOM     14  C17 GLC     4      41.541  14.125 195.351  0.00  0.00    +0.000 A 
ATOM     15  C18 GLC     4      41.350  15.253 194.448  0.00  0.00    +0.000 A 
ATOM     16  C19 GLC     4      41.136  16.475 194.932  0.00  0.00    +0.000 A 
ATOM     17  C20 GLC     4      41.088  16.702 196.348  0.00  0.00    +0.000 A 
ENDROOT
BRANCH   3  18
ATOM     18  O3  GLC     4      45.245   8.832 197.903  0.00  0.00    +0.000 OA
ATOM     19  H3  GLC     4      45.060   8.252 198.699  0.00  0.00    +0.000 HD
ENDBRANCH   3  18
BRANCH   4  20
ATOM     20  O4  GLC     4      44.447   9.681 195.419  0.00  0.00    +0.000 OA
ATOM     21  H4  GLC     4      45.459   9.790 195.351  0.00  0.00    +0.000 HD
ENDBRANCH   4  20
BRANCH   8  22
ATOM     22  O1  GLC     4      43.469  14.434 198.745  0.00  0.00    +0.000 OA
ATOM     23  H10 GLC     4      43.823  14.197 197.862  0.00  0.00    +0.000 HD
ENDBRANCH   8  22
BRANCH  16  24
ATOM     24  O1  GLC     4      40.957  17.520 194.089  0.00  0.00    +0.000 OA
ATOM     25  H14 GLC     4      41.594  18.187 194.319  0.00  0.00    +0.000 HD
ENDBRANCH  16  24
TORSDOF 4
ENDMDL
MODEL 2
REMARK VINA RESULT:     0.000      1.771      2.150
REMARK INTER + INTRA:           0.000
REMARK INTER:                   0.000
REMARK INTRA:                   0.000
REMARK UNBOUND:                 0.000
REMARK  Name = Brazilin.pdb
REMARK  4 active torsions:
REMARK  status: ('A' for Active; 'I' for Inactive)
REMARK    1  A    between atoms: C3_3  and  O3_6
REMARK    2  A    between atoms: C4_4  and  O4_7
REMARK    3  A    between atoms: C10_10  and  O1_16
REMARK    4  A    between atoms: C19_19  and  O1_21
REMARK                            x       y       z     vdW  Elec       q    Type
REMARK                         _______ _______ _______ _____ _____    ______ ____
ROOT
ATOM      1 3C45 GLC     4      43.061  11.697 198.750  0.00  0.00    +0.000 A 
ATOM      2  C2  GLC     4      44.038  10.815 199.397  0.00  0.00    +0.000 A 
ATOM      3  C3  GLC     4      44.265   9.626 198.830  0.00  0.00    +0.000 A 
ATOM      4  C4  GLC     4      43.566   9.241 197.597  0.00  0.00    +0.000 A 
ATOM      5  C5  GLC     4      42.688  10.064 197.008  0.00  0.00    +0.000 A 
ATOM      6 3C45 GLC     4      42.428  11.344 197.637  0.00  0.00    +0.000 A 
ATOM      7  C9  GLC     4      41.433  12.437 197.258  0.00  0.00    +0.000 C 
ATOM      8  C10 GLC     4      42.163  13.609 197.834  0.00  0.00    +0.000 C 
ATOM      9  C11 GLC     4      42.561  13.045 199.221  0.00  0.00    +0.000 C 
ATOM     10  C12 GLC     4      41.326  14.883 197.787  0.00  0.00    +0.000 C 
ATOM     11  O13 GLC     4      41.021  15.127 196.411  0.00  0.00    +0.000 OA
ATOM     12  C14 GLC     4      40.820  14.144 195.494  0.00  0.00    +0.000 A 
ATOM     13  C15 GLC     4      41.013  12.725 195.847  0.00  0.00    +0.000 A 
ATOM     14  C17 GLC     4      40.790  11.788 194.930  0.00  0.00    +0.000 A 
ATOM     15  C18 GLC     4      40.375  12.183 193.590  0.00  0.00    +0.000 A 
ATOM     16  C19 GLC     4      40.211  13.469 193.286  0.00  0.00    +0.000 A 
ATOM     17  C20 GLC     4      40.439  14.487 194.272  0.00  0.00    +0.000 A 
ENDROOT
BRANCH   3  18
ATOM     18  O3  GLC     4      45.148   8.705 199.374  0.00  0.00    +0.000 OA
ATOM     19  H3  GLC     4      45.934   8.526 198.777  0.00  0.00    +0.000 HD
ENDBRANCH   3  18
BRANCH   4  20
ATOM     20  O4  GLC     4      43.833   8.000 197.072  0.00  0.00    +0.000 OA
ATOM     21  H4  GLC     4      43.843   8.055 196.054  0.00  0.00    +0.000 HD
ENDBRANCH   4  20
BRANCH   8  22
ATOM     22  O1  GLC     4      43.345  13.863 197.051  0.00  0.00    +0.000 OA
ATOM     23  H10 GLC     4      43.403  13.247 196.290  0.00  0.00    +0.000 HD
ENDBRANCH   8  22
BRANCH  16  24
ATOM     24  O1  GLC     4      39.823  13.831 192.041  0.00  0.00    +0.000 OA
ATOM     25  H14 GLC     4      39.000  14.300 192.121  0.00  0.00    +0.000 HD
ENDBRANCH  16  24
TORSDOF 4
ENDMDL
MODEL 3
REMARK VINA RESULT:     0.000      6.177      9.621
REMARK INTER + INTRA:           0.000
REMARK INTER:                   0.000
REMARK INTRA:                   0.000
REMARK UNBOUND:                 0.000
REMARK  Name = Brazilin.pdb
REMARK  4 active torsions:
REMARK  status: ('A' for Active; 'I' for Inactive)
REMARK    1  A    between atoms: C3_3  and  O3_6
REMARK    2  A    between atoms: C4_4  and  O4_7
REMARK    3  A    between atoms: C10_10  and  O1_16
REMARK    4  A    between atoms: C19_19  and  O1_21
REMARK                            x       y       z     vdW  Elec       q    Type
REMARK                         _______ _______ _______ _____ _____    ______ ____
ROOT
ATOM      1 3C45 GLC     4      43.595  23.209 197.963  0.00  0.00    +0.000 A 
ATOM      2  C2  GLC     4      43.671  23.934 196.690  0.00  0.00    +0.000 A 
ATOM      3  C3  GLC     4      43.718  23.208 195.569  0.00  0.00    +0.000 A 
ATOM      4  C4  GLC     4      43.675  21.741 195.628  0.00  0.00    +0.000 A 
ATOM      5  C5  GLC     4      43.588  21.092 196.797  0.00  0.00    +0.000 A 
ATOM      6 3C45 GLC     4      43.559  21.882 198.012  0.00  0.00    +0.000 A 
ATOM      7  C9  GLC     4      43.554  21.435 199.471  0.00  0.00    +0.000 C 
ATOM      8  C10 GLC     4      42.855  22.619 200.062  0.00  0.00    +0.000 C 
ATOM      9  C11 GLC     4      43.614  23.777 199.365  0.00  0.00    +0.000 C 
ATOM     10  C12 GLC     4      42.848  22.576 201.586  0.00  0.00    +0.000 C 
ATOM     11  O13 GLC     4      42.172  21.373 201.963  0.00  0.00    +0.000 OA
ATOM     12  C14 GLC     4      42.227  20.218 201.248  0.00  0.00    +0.000 A 
ATOM     13  C15 GLC     4      42.919  20.163 199.947  0.00  0.00    +0.000 A 
ATOM     14  C17 GLC     4      42.968  19.011 199.282  0.00  0.00    +0.000 A 
ATOM     15  C18 GLC     4      42.323  17.832 199.845  0.00  0.00    +0.000 A 
ATOM     16  C19 GLC     4      41.697  17.902 201.019  0.00  0.00    +0.000 A 
ATOM     17  C20 GLC     4      41.647  19.136 201.748  0.00  0.00    +0.000 A 
ENDROOT
BRANCH   3  18
ATOM     18  O3  GLC     4      43.819  23.792 194.315  0.00  0.00    +0.000 OA
ATOM     19  H3  GLC     4      44.281  24.681 194.341  0.00  0.00    +0.000 HD
ENDBRANCH   3  18
BRANCH   4  20
ATOM     20  O4  GLC     4      43.740  21.051 194.441  0.00  0.00    +0.000 OA
ATOM     21  H4  GLC     4      44.458  21.464 193.846  0.00  0.00    +0.000 HD
ENDBRANCH   4  20
BRANCH   8  22
ATOM     22  O1  GLC     4      41.477  22.614 199.642  0.00  0.00    +0.000 OA
ATOM     23  H10 GLC     4      41.324  21.945 198.943  0.00  0.00    +0.000 HD
ENDBRANCH   8  22
BRANCH  16  24
ATOM     24  O1  GLC     4      41.100  16.803 201.539  0.00  0.00    +0.000 OA
ATOM     25  H14 GLC     4      40.346  17.095 202.039  0.00  0.00    +0.000 HD
ENDBRANCH  16  24
TORSDOF 4
ENDMDL
MODEL 4
REMARK VINA RESULT:     0.000      9.793     11.184
REMARK INTER + INTRA:           0.000
REMARK INTER:                   0.000
REMARK INTRA:                   0.000
REMARK UNBOUND:                 0.000
REMARK  Name = Brazilin.pdb
REMARK  4 active torsions:
REMARK  status: ('A' for Active; 'I' for Inactive)
REMARK    1  A    between atoms: C3_3  and  O3_6
REMARK    2  A    between atoms: C4_4  and  O4_7
REMARK    3  A    between atoms: C10_10  and  O1_16
REMARK    4  A    between atoms: C19_19  and  O1_21
REMARK                            x       y       z     vdW  Elec       q    Type
REMARK                         _______ _______ _______ _____ _____    ______ ____
ROOT
ATOM      1 3C45 GLC     4      40.264  22.797 194.389  0.00  0.00    +0.000 A 
ATOM      2  C2  GLC     4      40.637  22.734 195.806  0.00  0.00    +0.000 A 
ATOM      3  C3  GLC     4      39.716  22.292 196.667  0.00  0.00    +0.000 A 
ATOM      4  C4  GLC     4      38.390  21.872 196.192  0.00  0.00    +0.000 A 
ATOM      5  C5  GLC     4      38.069  21.920 194.893  0.00  0.00    +0.000 A 
ATOM      6 3C45 GLC     4      39.063  22.420 193.964  0.00  0.00    +0.000 A 
ATOM      7  C9  GLC     4      38.961  22.671 192.462  0.00  0.00    +0.000 C 
ATOM      8  C10 GLC     4      40.405  22.494 192.110  0.00  0.00    +0.000 C 
ATOM      9  C11 GLC     4      41.077  23.329 193.230  0.00  0.00    +0.000 C 
ATOM     10  C12 GLC     4      40.690  22.870 190.660  0.00  0.00    +0.000 C 
ATOM     11  O13 GLC     4      39.882  22.016 189.845  0.00  0.00    +0.000 OA
ATOM     12  C14 GLC     4      38.649  21.572 190.205  0.00  0.00    +0.000 A 
ATOM     13  C15 GLC     4      38.097  21.863 191.541  0.00  0.00    +0.000 A 
ATOM     14  C17 GLC     4      36.879  21.427 191.854  0.00  0.00    +0.000 A 
ATOM     15  C18 GLC     4      36.122  20.657 190.875  0.00  0.00    +0.000 A 
ATOM     16  C19 GLC     4      36.639  20.397 189.675  0.00  0.00    +0.000 A 
ATOM     17  C20 GLC     4      37.947  20.872 189.325  0.00  0.00    +0.000 A 
ENDROOT
BRANCH   3  18
ATOM     18  O3  GLC     4      39.956  22.218 198.031  0.00  0.00    +0.000 OA
ATOM     19  H3  GLC     4      40.873  21.875 198.242  0.00  0.00    +0.000 HD
ENDBRANCH   3  18
BRANCH   4  20
ATOM     20  O4  GLC     4      37.483  21.441 197.129  0.00  0.00    +0.000 OA
ATOM     21  H4  GLC     4      37.385  22.146 197.859  0.00  0.00    +0.000 HD
ENDBRANCH   4  20
BRANCH   8  22
ATOM     22  O1  GLC     4      40.761  21.106 192.255  0.00  0.00    +0.000 OA
ATOM     23  H10 GLC     4      39.979  20.564 192.491  0.00  0.00    +0.000 HD
ENDBRANCH   8  22
BRANCH  16  24
ATOM     24  O1  GLC     4      35.931  19.683 188.769  0.00  0.00    +0.000 OA
ATOM     25  H14 GLC     4      35.051  20.044 188.742  0.00  0.00    +0.000 HD
ENDBRANCH  16  24
TORSDOF 4
ENDMDL
MODEL 5
REMARK VINA RESULT:     0.000      8.851     10.273
REMARK INTER + INTRA:           0.000
REMARK INTER:                   0.000
REMARK INTRA:                   0.000
REMARK UNBOUND:                 0.000
REMARK  Name = Brazilin.pdb
REMARK  4 active torsions:
REMARK  status: ('A' for Active; 'I' for Inactive)
REMARK    1  A    between atoms: C3_3  and  O3_6
REMARK    2  A    between atoms: C4_4  and  O4_7
REMARK    3  A    between atoms: C10_10  and  O1_16
REMARK    4  A    between atoms: C19_19  and  O1_21
REMARK                            x       y       z     vdW  Elec       q    Type
REMARK                         _______ _______ _______ _____ _____    ______ ____
ROOT
ATOM      1 3C45 GLC     4      40.281  22.983 196.073  0.00  0.00    +0.000 A 
ATOM      2  C2  GLC     4      40.582  23.483 197.419  0.00  0.00    +0.000 A 
ATOM      3  C3  GLC     4      39.747  23.139 198.405  0.00  0.00    +0.000 A 
ATOM      4  C4  GLC     4      38.587  22.280 198.134  0.00  0.00    +0.000 A 
ATOM      5  C5  GLC     4      38.333  21.817 196.903  0.00  0.00    +0.000 A 
ATOM      6 3C45 GLC     4      39.229  22.209 195.832  0.00  0.00    +0.000 A 
ATOM      7  C9  GLC     4      39.151  21.920 194.336  0.00  0.00    +0.000 C 
ATOM      8  C10 GLC     4      40.613  21.992 194.021  0.00  0.00    +0.000 C 
ATOM      9  C11 GLC     4      41.006  23.285 194.779  0.00  0.00    +0.000 C 
ATOM     10  C12 GLC     4      40.878  21.927 192.521  0.00  0.00    +0.000 C 
ATOM     11  O13 GLC     4      40.341  20.684 192.060  0.00  0.00    +0.000 OA
ATOM     12  C14 GLC     4      39.232  20.098 192.582  0.00  0.00    +0.000 A 
ATOM     13  C15 GLC     4      38.555  20.670 193.761  0.00  0.00    +0.000 A 
ATOM     14  C17 GLC     4      37.461  20.080 194.236  0.00  0.00    +0.000 A 
ATOM     15  C18 GLC     4      36.963  18.872 193.591  0.00  0.00    +0.000 A 
ATOM     16  C19 GLC     4      37.590  18.365 192.531  0.00  0.00    +0.000 A 
ATOM     17  C20 GLC     4      38.764  19.000 192.006  0.00  0.00    +0.000 A 
ENDROOT
BRANCH   3  18
ATOM     18  O3  GLC     4      39.923  23.579 199.708  0.00  0.00    +0.000 OA
ATOM     19  H3  GLC     4      39.060  23.634 200.215  0.00  0.00    +0.000 HD
ENDBRANCH   3  18
BRANCH   4  20
ATOM     20  O4  GLC     4      37.759  21.974 199.188  0.00  0.00    +0.000 OA
ATOM     21  H4  GLC     4      38.236  22.176 200.066  0.00  0.00    +0.000 HD
ENDBRANCH   4  20
BRANCH   8  22
ATOM     22  O1  GLC     4      41.280  20.859 194.608  0.00  0.00    +0.000 OA
ATOM     23  H10 GLC     4      41.231  20.076 194.019  0.00  0.00    +0.000 HD
ENDBRANCH   8  22
BRANCH  16  24
ATOM     24  O1  GLC     4      37.122  17.243 191.934  0.00  0.00    +0.000 OA
ATOM     25  H14 GLC     4      36.323  17.475 191.473  0.00  0.00    +0.000 HD
ENDBRANCH  16  24
TORSDOF 4
ENDMDL
MODEL 6
REMARK VINA RESULT:     0.000      6.860      9.347
REMARK INTER + INTRA:           0.000
REMARK INTER:                   0.000
REMARK INTRA:                   0.000
REMARK UNBOUND:                 0.000
REMARK  Name = Brazilin.pdb
REMARK  4 active torsions:
REMARK  status: ('A' for Active; 'I' for Inactive)
REMARK    1  A    between atoms: C3_3  and  O3_6
REMARK    2  A    between atoms: C4_4  and  O4_7
REMARK    3  A    between atoms: C10_10  and  O1_16
REMARK    4  A    between atoms: C19_19  and  O1_21
REMARK                            x       y       z     vdW  Elec       q    Type
REMARK                         _______ _______ _______ _____ _____    ______ ____
ROOT
ATOM      1 3C45 GLC     4      41.408  22.410 197.402  0.00  0.00    +0.000 A 
ATOM      2  C2  GLC     4      41.870  23.140 198.588  0.00  0.00    +0.000 A 
ATOM      3  C3  GLC     4      41.140  23.032 199.702  0.00  0.00    +0.000 A 
ATOM      4  C4  GLC     4      39.932  22.196 199.724  0.00  0.00    +0.000 A 
ATOM      5  C5  GLC     4      39.530  21.522 198.639  0.00  0.00    +0.000 A 
ATOM      6 3C45 GLC     4      40.313  21.658 197.426  0.00  0.00    +0.000 A 
ATOM      7  C9  GLC     4      40.062  21.095 196.030  0.00  0.00    +0.000 C 
ATOM      8  C10 GLC     4      41.481  21.032 195.560  0.00  0.00    +0.000 C 
ATOM      9  C11 GLC     4      41.994  22.424 196.008  0.00  0.00    +0.000 C 
ATOM     10  C12 GLC     4      41.577  20.670 194.081  0.00  0.00    +0.000 C 
ATOM     11  O13 GLC     4      40.956  19.391 193.928  0.00  0.00    +0.000 OA
ATOM     12  C14 GLC     4      39.894  18.972 194.665  0.00  0.00    +0.000 A 
ATOM     13  C15 GLC     4      39.369  19.790 195.774  0.00  0.00    +0.000 A 
ATOM     14  C17 GLC     4      38.317  19.357 196.464  0.00  0.00    +0.000 A 
ATOM     15  C18 GLC     4      37.715  18.075 196.120  0.00  0.00    +0.000 A 
ATOM     16  C19 GLC     4      38.206  17.346 195.120  0.00  0.00    +0.000 A 
ATOM     17  C20 GLC     4      39.334  17.809 194.363  0.00  0.00    +0.000 A 
ENDROOT
BRANCH   3  18
ATOM     18  O3  GLC     4      41.472  23.702 200.870  0.00  0.00    +0.000 OA
ATOM     19  H3  GLC     4      41.576  24.689 200.731  0.00  0.00    +0.000 HD
ENDBRANCH   3  18
BRANCH   4  20
ATOM     20  O4  GLC     4      39.217  22.139 200.896  0.00  0.00    +0.000 OA
ATOM     21  H4  GLC     4      39.794  22.479 201.665  0.00  0.00    +0.000 HD
ENDBRANCH   4  20
BRANCH   8  22
ATOM     22  O1  GLC     4      42.175  19.998 196.283  0.00  0.00    +0.000 OA
ATOM     23  H10 GLC     4      42.002  20.065 197.246  0.00  0.00    +0.000 HD
ENDBRANCH   8  22
BRANCH  16  24
ATOM     24  O1  GLC     4      37.642  16.156 194.804  0.00  0.00    +0.000 OA
ATOM     25  H14 GLC     4      38.332  15.502 194.805  0.00  0.00    +0.000 HD
ENDBRANCH  16  24
TORSDOF 4
ENDMDL
MODEL 7
REMARK VINA RESULT:     0.000      2.788      3.873
REMARK INTER + INTRA:           0.000
REMARK INTER:                   0.000
REMARK INTRA:                   0.000
REMARK UNBOUND:                 0.000
REMARK  Name = Brazilin.pdb
REMARK  4 active torsions:
REMARK  status: ('A' for Active; 'I' for Inactive)
REMARK    1  A    between atoms: C3_3  and  O3_6
REMARK    2  A    between atoms: C4_4  and  O4_7
REMARK    3  A    between atoms: C10_10  and  O1_16
REMARK    4  A    between atoms: C19_19  and  O1_21
REMARK                            x       y       z     vdW  Elec       q    Type
REMARK                         _______ _______ _______ _____ _____    ______ ____
ROOT
ATOM      1 3C45 GLC     4      43.830  10.164 197.336  0.00  0.00    +0.000 A 
ATOM      2  C2  GLC     4      45.222  10.029 196.895  0.00  0.00    +0.000 A 
ATOM      3  C3  GLC     4      45.772  11.069 196.260  0.00  0.00    +0.000 A 
ATOM      4  C4  GLC     4      45.001  12.299 196.038  0.00  0.00    +0.000 A 
ATOM      5  C5  GLC     4      43.735  12.415 196.460  0.00  0.00    +0.000 A 
ATOM      6 3C45 GLC     4      43.135  11.278 197.130  0.00  0.00    +0.000 A 
ATOM      7  C9  GLC     4      41.709  11.080 197.636  0.00  0.00    +0.000 C 
ATOM      8  C10 GLC     4      41.997  10.100 198.730  0.00  0.00    +0.000 C 
ATOM      9  C11 GLC     4      42.951   9.124 197.995  0.00  0.00    +0.000 C 
ATOM     10  C12 GLC     4      40.720   9.536 199.342  0.00  0.00    +0.000 C 
ATOM     11  O13 GLC     4      39.986  10.647 199.865  0.00  0.00    +0.000 OA
ATOM     12  C14 GLC     4      39.985  11.885 199.303  0.00  0.00    +0.000 A 
ATOM     13  C15 GLC     4      40.848  12.196 198.149  0.00  0.00    +0.000 A 
ATOM     14  C17 GLC     4      40.808  13.413 197.613  0.00  0.00    +0.000 A 
ATOM     15  C18 GLC     4      39.925  14.419 198.188  0.00  0.00    +0.000 A 
ATOM     16  C19 GLC     4      39.156  14.123 199.234  0.00  0.00    +0.000 A 
ATOM     17  C20 GLC     4      39.185  12.810 199.813  0.00  0.00    +0.000 A 
ENDROOT
BRANCH   3  18
ATOM     18  O3  GLC     4      47.072  11.035 195.778  0.00  0.00    +0.000 OA
ATOM     19  H3  GLC     4      47.237  10.254 195.172  0.00  0.00    +0.000 HD
ENDBRANCH   3  18
BRANCH   4  20
ATOM     20  O4  GLC     4      45.619  13.327 195.367  0.00  0.00    +0.000 OA
ATOM     21  H4  GLC     4      46.627  13.174 195.362  0.00  0.00    +0.000 HD
ENDBRANCH   4  20
BRANCH   8  22
ATOM     22  O1  GLC     4      42.704  10.769 199.791  0.00  0.00    +0.000 OA
ATOM     23  H10 GLC     4      43.442  11.310 199.438  0.00  0.00    +0.000 HD
ENDBRANCH   8  22
BRANCH  16  24
ATOM     24  O1  GLC     4      38.335  15.060 199.764  0.00  0.00    +0.000 OA
ATOM     25  H14 GLC     4      37.441  14.798 199.576  0.00  0.00    +0.000 HD
ENDBRANCH  16  24
TORSDOF 4
ENDMDL
MODEL 8
REMARK VINA RESULT:     0.000      8.801      9.816
REMARK INTER + INTRA:           0.000
REMARK INTER:                   0.000
REMARK INTRA:                   0.000
REMARK UNBOUND:                 0.000
REMARK  Name = Brazilin.pdb
REMARK  4 active torsions:
REMARK  status: ('A' for Active; 'I' for Inactive)
REMARK    1  A    between atoms: C3_3  and  O3_6
REMARK    2  A    between atoms: C4_4  and  O4_7
REMARK    3  A    between atoms: C10_10  and  O1_16
REMARK    4  A    between atoms: C19_19  and  O1_21
REMARK                            x       y       z     vdW  Elec       q    Type
REMARK                         _______ _______ _______ _____ _____    ______ ____
ROOT
ATOM      1 3C45 GLC     4      32.819  11.575 199.193  0.00  0.00    +0.000 A 
ATOM      2  C2  GLC     4      33.355  10.728 200.264  0.00  0.00    +0.000 A 
ATOM      3  C3  GLC     4      34.605  10.968 200.673  0.00  0.00    +0.000 A 
ATOM      4  C4  GLC     4      35.391  12.055 200.073  0.00  0.00    +0.000 A 
ATOM      5  C5  GLC     4      34.883  12.831 199.107  0.00  0.00    +0.000 A 
ATOM      6 3C45 GLC     4      33.535  12.555 198.651  0.00  0.00    +0.000 A 
ATOM      7  C9  GLC     4      32.731  13.197 197.524  0.00  0.00    +0.000 C 
ATOM      8  C10 GLC     4      31.358  12.950 198.064  0.00  0.00    +0.000 C 
ATOM      9  C11 GLC     4      31.482  11.466 198.495  0.00  0.00    +0.000 C 
ATOM     10  C12 GLC     4      30.273  13.321 197.058  0.00  0.00    +0.000 C 
ATOM     11  O13 GLC     4      30.439  14.711 196.765  0.00  0.00    +0.000 OA
ATOM     12  C14 GLC     4      31.643  15.339 196.733  0.00  0.00    +0.000 A 
ATOM     13  C15 GLC     4      32.880  14.632 197.112  0.00  0.00    +0.000 A 
ATOM     14  C17 GLC     4      34.044  15.273 197.051  0.00  0.00    +0.000 A 
ATOM     15  C18 GLC     4      34.071  16.666 196.627  0.00  0.00    +0.000 A 
ATOM     16  C19 GLC     4      32.944  17.293 196.293  0.00  0.00    +0.000 A 
ATOM     17  C20 GLC     4      31.685  16.607 196.346  0.00  0.00    +0.000 A 
ENDROOT
BRANCH   3  18
ATOM     18  O3  GLC     4      35.217  10.209 201.660  0.00  0.00    +0.000 OA
ATOM     19  H3  GLC     4      35.361   9.258 201.379  0.00  0.00    +0.000 HD
ENDBRANCH   3  18
BRANCH   4  20
ATOM     20  O4  GLC     4      36.674  12.241 200.528  0.00  0.00    +0.000 OA
ATOM     21  H4  GLC     4      37.219  12.733 199.820  0.00  0.00    +0.000 HD
ENDBRANCH   4  20
BRANCH   8  22
ATOM     22  O1  GLC     4      31.147  13.780 199.223  0.00  0.00    +0.000 OA
ATOM     23  H10 GLC     4      30.387  13.460 199.753  0.00  0.00    +0.000 HD
ENDBRANCH   8  22
BRANCH  16  24
ATOM     24  O1  GLC     4      32.975  18.587 195.897  0.00  0.00    +0.000 OA
ATOM     25  H14 GLC     4      32.228  19.025 196.288  0.00  0.00    +0.000 HD
ENDBRANCH  16  24
TORSDOF 4
ENDMDL
MODEL 9
REMARK VINA RESULT:     0.000      3.374      5.888
REMARK INTER + INTRA:           0.000
REMARK INTER:                   0.000
REMARK INTRA:                   0.000
REMARK UNBOUND:                 0.000
REMARK  Name = Brazilin.pdb
REMARK  4 active torsions:
REMARK  status: ('A' for Active; 'I' for Inactive)
REMARK    1  A    between atoms: C3_3  and  O3_6
REMARK    2  A    between atoms: C4_4  and  O4_7
REMARK    3  A    between atoms: C10_10  and  O1_16
REMARK    4  A    between atoms: C19_19  and  O1_21
REMARK                            x       y       z     vdW  Elec       q    Type
REMARK                         _______ _______ _______ _____ _____    ______ ____
ROOT
ATOM      1 3C45 GLC     4      40.656  11.774 197.789  0.00  0.00    +0.000 A 
ATOM      2  C2  GLC     4      41.119  12.450 199.007  0.00  0.00    +0.000 A 
ATOM      3  C3  GLC     4      42.057  11.836 199.734  0.00  0.00    +0.000 A 
ATOM      4  C4  GLC     4      42.606  10.542 199.305  0.00  0.00    +0.000 A 
ATOM      5  C5  GLC     4      42.186   9.945 198.182  0.00  0.00    +0.000 A 
ATOM      6 3C45 GLC     4      41.153  10.603 197.407  0.00  0.00    +0.000 A 
ATOM      7  C9  GLC     4      40.421  10.134 196.152  0.00  0.00    +0.000 C 
ATOM      8  C10 GLC     4      40.087  11.475 195.578  0.00  0.00    +0.000 C 
ATOM      9  C11 GLC     4      39.559  12.203 196.841  0.00  0.00    +0.000 C 
ATOM     10  C12 GLC     4      39.163  11.365 194.370  0.00  0.00    +0.000 C 
ATOM     11  O13 GLC     4      39.849  10.575 193.395  0.00  0.00    +0.000 OA
ATOM     12  C14 GLC     4      40.692   9.555 193.705  0.00  0.00    +0.000 A 
ATOM     13  C15 GLC     4      41.045   9.260 195.106  0.00  0.00    +0.000 A 
ATOM     14  C17 GLC     4      41.859   8.242 195.374  0.00  0.00    +0.000 A 
ATOM     15  C18 GLC     4      42.400   7.451 194.276  0.00  0.00    +0.000 A 
ATOM     16  C19 GLC     4      42.077   7.735 193.016  0.00  0.00    +0.000 A 
ATOM     17  C20 GLC     4      41.191   8.824 192.718  0.00  0.00    +0.000 A 
ENDROOT
BRANCH   3  18
ATOM     18  O3  GLC     4      42.544  12.374 200.916  0.00  0.00    +0.000 OA
ATOM     19  H3  GLC     4      41.845  12.421 201.633  0.00  0.00    +0.000 HD
ENDBRANCH   3  18
BRANCH   4  20
ATOM     20  O4  GLC     4      43.558   9.956 200.104  0.00  0.00    +0.000 OA
ATOM     21  H4  GLC     4      43.580   8.952 199.927  0.00  0.00    +0.000 HD
ENDBRANCH   4  20
BRANCH   8  22
ATOM     22  O1  GLC     4      41.295  12.108 195.117  0.00  0.00    +0.000 OA
ATOM     23  H10 GLC     4      41.162  13.071 194.988  0.00  0.00    +0.000 HD
ENDBRANCH   8  22
BRANCH  16  24
ATOM     24  O1  GLC     4      42.580   6.996 192.000  0.00  0.00    +0.000 OA
ATOM     25  H14 GLC     4      42.804   7.592 191.294  0.00  0.00    +0.000 HD
ENDBRANCH  16  24
TORSDOF 4
ENDMDL
