MODEL 1
REMARK VINA RESULT:    -1.969      0.000      0.000
REMARK INTER + INTRA:          -7.326
REMARK INTER:                  -3.926
REMARK INTRA:                  -3.400
REMARK UNBOUND:                -3.400
REMARK  10 active torsions:
REMARK  status: ('A' for Active; 'I' for Inactive)
REMARK    1  A    between atoms: N2_1  and  C1_2 
REMARK    2  A    between atoms: C1_2  and  C6_3 
REMARK    3  A    between atoms: C1_2  and  C2_10 
REMARK    4  A    between atoms: C6_3  and  C7_4 
REMARK    5  A    between atoms: C2_10  and  O2_11 
REMARK    6  A    between atoms: C2_10  and  C3_12 
REMARK       I    between atoms: C3_12  and  N1_14 
REMARK    7  A    between atoms: N1_14  and  C4_15 
REMARK    8  A    between atoms: C4_15  and  C13_16 
REMARK    9  A    between atoms: C4_15  and  C5_20 
REMARK   10  A    between atoms: C13_16  and  C14_17 
ROOT
HETATM    1  N2  BES   501      38.614  15.664 193.611  1.00  0.00    -0.423 N 
HETATM    2  H1  BES   501      39.489  15.055 193.513  1.00  0.00     0.150 HD
HETATM    3  H2  BES   501      38.673  16.717 193.430  1.00  0.00     0.150 HD
ENDROOT
BRANCH   1   4
HETATM    4  C1  BES   501      37.362  15.068 193.987  1.00  0.00     0.116 C 
BRANCH   4   5
HETATM    5  C6  BES   501      37.304  14.368 195.348  1.00  0.00     0.066 C 
BRANCH   5   6
HETATM    6  C7  BES   501      36.349  15.037 196.351  1.00  0.00    -0.056 A 
HETATM    7  C8  BES   501      35.779  16.304 196.094  1.00  0.00     0.007 A 
HETATM    8  C9  BES   501      34.901  16.891 197.032  1.00  0.00     0.001 A 
HETATM    9  C10 BES   501      34.585  16.218 198.209  1.00  0.00     0.000 A 
HETATM   10  C11 BES   501      35.148  14.953 198.461  1.00  0.00     0.001 A 
HETATM   11  C12 BES   501      36.025  14.365 197.524  1.00  0.00     0.007 A 
ENDBRANCH   5   6
ENDBRANCH   4   5
BRANCH   4  12
HETATM   12  C2  BES   501      37.072  14.020 192.956  1.00  0.00     0.232 C 
BRANCH  12  13
HETATM   13  O2  BES   501      37.313  14.553 191.718  1.00  0.00    -0.384 OA
HETATM   14  H12 BES   501      36.440  15.007 191.356  1.00  0.00     0.210 HD
ENDBRANCH  12  13
BRANCH  12  15
HETATM   15  C3  BES   501      35.633  13.610 193.066  1.00  0.00     0.249 C 
HETATM   16  O3  BES   501      35.392  12.424 193.097  1.00  0.00    -0.271 OA
HETATM   17  N1  BES   501      34.595  14.648 193.130  1.00  0.00    -0.344 N 
HETATM   18  H23 BES   501      34.912  15.671 193.107  1.00  0.00     0.163 HD
BRANCH  17  19
HETATM   19  C4  BES   501      33.160  14.383 193.226  1.00  0.00     0.185 C 
BRANCH  19  20
HETATM   20  C13 BES   501      32.616  14.965 194.536  1.00  0.00     0.040 C 
BRANCH  20  21
HETATM   21  C14 BES   501      32.780  13.970 195.667  1.00  0.00    -0.020 C 
HETATM   22  C15 BES   501      31.796  14.316 196.786  1.00  0.00     0.009 C 
HETATM   23  C16 BES   501      32.550  12.570 195.193  1.00  0.00     0.009 C 
ENDBRANCH  20  21
ENDBRANCH  19  20
BRANCH  19  24
HETATM   24  C5  BES   501      32.498  15.082 192.085  1.00  0.00     0.196 C 
HETATM   25  O1  BES   501      31.265  15.344 192.151  1.00  0.00    -0.646 OA
HETATM   26  O4  BES   501      33.233  15.428 191.108  1.00  0.00    -0.646 OA
ENDBRANCH  19  24
ENDBRANCH  17  19
ENDBRANCH  12  15
ENDBRANCH   4  12
ENDBRANCH   1   4
TORSDOF 10
REMARK  9 active torsions:
REMARK  status: ('A' for Active; 'I' for Inactive)
REMARK    1  A    between atoms: C70_1  and  C1_2 
REMARK    2  A    between atoms: C70_1  and  N12_20 
REMARK    3  A    between atoms: C1_2  and  C2_3 
REMARK    4  A    between atoms: C2_3  and  C3_4 
REMARK    5  A    between atoms: C2_3  and  O5_17 
REMARK       I    between atoms: C3_4  and  N1_6 
REMARK    6  A    between atoms: N1_6  and  C4_7 
REMARK    7  A    between atoms: C4_7  and  C13_8 
REMARK    8  A    between atoms: C4_7  and  C5_10 
REMARK    9  A    between atoms: C13_8  and  C7_9 
ROOT
HETATM    1  C70 BES A 501      34.007  17.702 188.395  1.00  6.08     0.232 C 
ENDROOT
BRANCH   1   2
HETATM    2  C1  BES A 501      35.175  18.225 188.986  1.00  6.71     0.068 C 
BRANCH   2   3
HETATM    3  C2  BES A 501      36.043  17.275 189.750  1.00  9.09     0.205 C 
BRANCH   3   4
HETATM    4  C3  BES A 501      36.001  17.640 191.207  1.00  8.29     0.227 C 
HETATM    5  O3  BES A 501      37.040  17.586 191.825  1.00  7.85    -0.277 OA
HETATM    6  N1  BES A 501      34.722  18.044 191.807  1.00  8.97    -0.246 NA
HETATM    7  H7  BES A 501      34.053  17.225 191.638  1.00  8.27     0.131 HD
BRANCH   6   8
HETATM    8  C4  BES A 501      34.544  18.412 193.212  1.00 10.85     0.169 C 
BRANCH   8   9
HETATM    9  C13 BES A 501      35.181  19.782 193.468  1.00  8.22     0.089 C 
BRANCH   9  10
HETATM   10  C7  BES A 501      36.243  19.684 194.580  1.00 11.21     0.029 A 
HETATM   11  C21 BES A 501      36.123  20.266 196.000  1.00  0.00     0.143 A 
HETATM   12  N22 BES A 501      37.417  19.928 196.763  1.00  0.00    -0.254 N 
HETATM   13  C23 BES A 501      38.338  19.139 195.814  1.00  0.00     0.207 A 
HETATM   14  N24 BES A 501      37.612  18.987 194.463  1.00  0.00    -0.353 N 
HETATM   15  H13 BES A 501      37.992  18.486 193.598  1.00  8.23     0.166 HD
ENDBRANCH   9  10
ENDBRANCH   8   9
BRANCH   8  16
HETATM   16  C5  BES A 501      33.076  18.516 193.466  1.00 10.09     0.192 C 
HETATM   17  O1  BES A 501      32.280  18.552 192.486  1.00  5.58    -0.647 OA
HETATM   18  O4  BES A 501      32.693  18.518 194.676  1.00  5.29    -0.647 OA
ENDBRANCH   8  16
ENDBRANCH   6   8
ENDBRANCH   3   4
BRANCH   3  19
HETATM   19  O5  BES A 501      35.540  15.874 189.569  1.00  8.27    -0.387 OA
HETATM   20  H15 BES A 501      35.117  15.536 190.469  1.00  8.22     0.210 HD
ENDBRANCH   3  19
ENDBRANCH   2   3
ENDBRANCH   1   2
BRANCH   1  21
HETATM   21  N12 BES A 501      32.873  17.724 189.408  1.00  8.22    -0.079 N 
HETATM   22  H14 BES A 501      33.090  17.041 190.202  1.00  8.22     0.274 HD
HETATM   23  H15 BES A 501      31.961  17.436 188.930  1.00  8.22     0.274 HD
HETATM   24  H1  BES A 501      32.770  18.712 189.807  1.00  8.22     0.274 HD
ENDBRANCH   1  21
TORSDOF 9
ENDMDL
MODEL 2
REMARK VINA RESULT:    -1.959      4.704      8.476
REMARK INTER + INTRA:          -7.305
REMARK INTER:                  -4.389
REMARK INTRA:                  -2.916
REMARK UNBOUND:                -3.400
REMARK  10 active torsions:
REMARK  status: ('A' for Active; 'I' for Inactive)
REMARK    1  A    between atoms: N2_1  and  C1_2 
REMARK    2  A    between atoms: C1_2  and  C6_3 
REMARK    3  A    between atoms: C1_2  and  C2_10 
REMARK    4  A    between atoms: C6_3  and  C7_4 
REMARK    5  A    between atoms: C2_10  and  O2_11 
REMARK    6  A    between atoms: C2_10  and  C3_12 
REMARK       I    between atoms: C3_12  and  N1_14 
REMARK    7  A    between atoms: N1_14  and  C4_15 
REMARK    8  A    between atoms: C4_15  and  C13_16 
REMARK    9  A    between atoms: C4_15  and  C5_20 
REMARK   10  A    between atoms: C13_16  and  C14_17 
ROOT
HETATM    1  N2  BES   501      41.818  13.766 197.523  1.00  0.00    -0.423 N 
HETATM    2  H1  BES   501      40.912  13.246 197.754  1.00  0.00     0.150 HD
HETATM    3  H2  BES   501      42.739  13.227 197.445  1.00  0.00     0.150 HD
ENDROOT
BRANCH   1   4
HETATM    4  C1  BES   501      41.799  15.188 197.318  1.00  0.00     0.116 C 
BRANCH   4   5
HETATM    5  C6  BES   501      43.102  15.948 197.581  1.00  0.00     0.066 C 
BRANCH   5   6
HETATM    6  C7  BES   501      43.526  16.874 196.428  1.00  0.00    -0.056 A 
HETATM    7  C8  BES   501      44.111  16.364 195.248  1.00  0.00     0.007 A 
HETATM    8  C9  BES   501      44.485  17.239 194.205  1.00  0.00     0.001 A 
HETATM    9  C10 BES   501      44.267  18.608 194.330  1.00  0.00     0.000 A 
HETATM   10  C11 BES   501      43.677  19.115 195.502  1.00  0.00     0.001 A 
HETATM   11  C12 BES   501      43.303  18.241 196.547  1.00  0.00     0.007 A 
ENDBRANCH   5   6
ENDBRANCH   4   5
BRANCH   4  12
HETATM   12  C2  BES   501      40.786  15.735 198.276  1.00  0.00     0.232 C 
BRANCH  12  13
HETATM   13  O2  BES   501      40.266  14.693 198.997  1.00  0.00    -0.384 OA
HETATM   14  H12 BES   501      39.265  14.543 198.723  1.00  0.00     0.210 HD
ENDBRANCH  12  13
BRANCH  12  15
HETATM   15  C3  BES   501      39.695  16.416 197.502  1.00  0.00     0.249 C 
HETATM   16  O3  BES   501      39.024  17.236 198.089  1.00  0.00    -0.271 OA
HETATM   17  N1  BES   501      39.494  16.066 196.090  1.00  0.00    -0.344 N 
HETATM   18  H23 BES   501      40.148  15.336 195.659  1.00  0.00     0.163 HD
BRANCH  17  19
HETATM   19  C4  BES   501      38.463  16.645 195.230  1.00  0.00     0.185 C 
BRANCH  19  20
HETATM   20  C13 BES   501      39.097  17.128 193.921  1.00  0.00     0.040 C 
BRANCH  20  21
HETATM   21  C14 BES   501      40.333  17.958 194.203  1.00  0.00    -0.020 C 
HETATM   22  C15 BES   501      41.067  18.229 192.888  1.00  0.00     0.009 C 
HETATM   23  C16 BES   501      39.977  19.248 194.869  1.00  0.00     0.009 C 
ENDBRANCH  20  21
ENDBRANCH  19  20
BRANCH  19  24
HETATM   24  C5  BES   501      37.483  15.564 194.912  1.00  0.00     0.196 C 
HETATM   25  O1  BES   501      36.792  15.062 195.840  1.00  0.00    -0.646 OA
HETATM   26  O4  BES   501      37.358  15.232 193.691  1.00  0.00    -0.646 OA
ENDBRANCH  19  24
ENDBRANCH  17  19
ENDBRANCH  12  15
ENDBRANCH   4  12
ENDBRANCH   1   4
TORSDOF 10
REMARK  9 active torsions:
REMARK  status: ('A' for Active; 'I' for Inactive)
REMARK    1  A    between atoms: C70_1  and  C1_2 
REMARK    2  A    between atoms: C70_1  and  N12_20 
REMARK    3  A    between atoms: C1_2  and  C2_3 
REMARK    4  A    between atoms: C2_3  and  C3_4 
REMARK    5  A    between atoms: C2_3  and  O5_17 
REMARK       I    between atoms: C3_4  and  N1_6 
REMARK    6  A    between atoms: N1_6  and  C4_7 
REMARK    7  A    between atoms: C4_7  and  C13_8 
REMARK    8  A    between atoms: C4_7  and  C5_10 
REMARK    9  A    between atoms: C13_8  and  C7_9 
ROOT
HETATM    1  C70 BES A 501      36.593  11.510 196.456  1.00  6.08     0.232 C 
ENDROOT
BRANCH   1   2
HETATM    2  C1  BES A 501      37.853  11.001 196.083  1.00  6.71     0.068 C 
BRANCH   2   3
HETATM    3  C2  BES A 501      39.046  11.872 196.329  1.00  9.09     0.205 C 
BRANCH   3   4
HETATM    4  C3  BES A 501      39.662  12.239 195.009  1.00  8.29     0.227 C 
HETATM    5  O3  BES A 501      38.945  12.218 194.034  1.00  7.85    -0.277 OA
HETATM    6  N1  BES A 501      41.084  12.607 194.961  1.00  8.97    -0.246 NA
HETATM    7  H7  BES A 501      41.612  11.768 195.365  1.00  8.27     0.131 HD
BRANCH   6   8
HETATM    8  C4  BES A 501      41.805  12.973 193.741  1.00 10.85     0.169 C 
BRANCH   8   9
HETATM    9  C13 BES A 501      41.521  14.439 193.397  1.00  8.22     0.089 C 
BRANCH   9  10
HETATM   10  C7  BES A 501      40.788  14.544 192.046  1.00 11.21     0.029 A 
HETATM   11  C21 BES A 501      41.368  15.134 190.747  1.00  0.00     0.143 A 
HETATM   12  N22 BES A 501      40.286  15.032 189.655  1.00  0.00    -0.254 N 
HETATM   13  C23 BES A 501      39.039  14.379 190.279  1.00  0.00     0.207 A 
HETATM   14  N24 BES A 501      39.349  14.077 191.758  1.00  0.00    -0.353 N 
HETATM   15  H13 BES A 501      38.683  13.623 192.460  1.00  8.23     0.166 HD
ENDBRANCH   9  10
ENDBRANCH   8   9
BRANCH   8  16
HETATM   16  C5  BES A 501      43.265  12.827 194.022  1.00 10.09     0.192 C 
HETATM   17  O1  BES A 501      44.083  12.831 193.061  1.00  5.58    -0.647 OA
HETATM   18  O4  BES A 501      43.619  12.749 195.239  1.00  5.29    -0.647 OA
ENDBRANCH   8  16
ENDBRANCH   6   8
ENDBRANCH   3   4
BRANCH   3  19
HETATM   19  O5  BES A 501      38.621  13.118 197.048  1.00  8.27    -0.387 OA
HETATM   20  H15 BES A 501      38.878  13.041 198.063  1.00  8.22     0.210 HD
ENDBRANCH   3  19
ENDBRANCH   2   3
ENDBRANCH   1   2
BRANCH   1  21
HETATM   21  N12 BES A 501      36.012  12.318 195.307  1.00  8.22    -0.079 N 
HETATM   22  H14 BES A 501      36.497  12.041 194.395  1.00  8.22     0.274 HD
HETATM   23  H15 BES A 501      36.166  13.360 195.489  1.00  8.22     0.274 HD
HETATM   24  H1  BES A 501      34.963  12.121 195.227  1.00  8.22     0.274 HD
ENDBRANCH   1  21
TORSDOF 9
ENDMDL
MODEL 3
REMARK VINA RESULT:    -1.939      2.765      4.444
REMARK INTER + INTRA:          -7.267
REMARK INTER:                  -3.535
REMARK INTRA:                  -3.732
REMARK UNBOUND:                -3.400
REMARK  10 active torsions:
REMARK  status: ('A' for Active; 'I' for Inactive)
REMARK    1  A    between atoms: N2_1  and  C1_2 
REMARK    2  A    between atoms: C1_2  and  C6_3 
REMARK    3  A    between atoms: C1_2  and  C2_10 
REMARK    4  A    between atoms: C6_3  and  C7_4 
REMARK    5  A    between atoms: C2_10  and  O2_11 
REMARK    6  A    between atoms: C2_10  and  C3_12 
REMARK       I    between atoms: C3_12  and  N1_14 
REMARK    7  A    between atoms: N1_14  and  C4_15 
REMARK    8  A    between atoms: C4_15  and  C13_16 
REMARK    9  A    between atoms: C4_15  and  C5_20 
REMARK   10  A    between atoms: C13_16  and  C14_17 
ROOT
HETATM    1  N2  BES   501      37.170  16.106 194.905  1.00  0.00    -0.423 N 
HETATM    2  H1  BES   501      36.544  16.973 194.942  1.00  0.00     0.150 HD
HETATM    3  H2  BES   501      37.894  15.936 195.674  1.00  0.00     0.150 HD
ENDROOT
BRANCH   1   4
HETATM    4  C1  BES   501      37.038  15.171 193.823  1.00  0.00     0.116 C 
BRANCH   4   5
HETATM    5  C6  BES   501      36.698  13.723 194.191  1.00  0.00     0.066 C 
BRANCH   5   6
HETATM    6  C7  BES   501      35.277  13.295 193.788  1.00  0.00    -0.056 A 
HETATM    7  C8  BES   501      34.284  14.247 193.464  1.00  0.00     0.007 A 
HETATM    8  C9  BES   501      32.990  13.823 193.093  1.00  0.00     0.001 A 
HETATM    9  C10 BES   501      32.689  12.466 193.032  1.00  0.00     0.000 A 
HETATM   10  C11 BES   501      33.680  11.519 193.347  1.00  0.00     0.001 A 
HETATM   11  C12 BES   501      34.976  11.940 193.718  1.00  0.00     0.007 A 
ENDBRANCH   5   6
ENDBRANCH   4   5
BRANCH   4  12
HETATM   12  C2  BES   501      38.368  15.135 193.136  1.00  0.00     0.232 C 
BRANCH  12  13
HETATM   13  O2  BES   501      39.111  16.198 193.578  1.00  0.00    -0.384 OA
HETATM   14  H12 BES   501      39.929  16.344 192.937  1.00  0.00     0.210 HD
ENDBRANCH  12  13
BRANCH  12  15
HETATM   15  C3  BES   501      38.158  15.238 191.654  1.00  0.00     0.249 C 
HETATM   16  O3  BES   501      39.126  15.084 190.942  1.00  0.00    -0.271 OA
HETATM   17  N1  BES   501      36.811  15.515 191.139  1.00  0.00    -0.344 N 
HETATM   18  H23 BES   501      36.018  15.624 191.851  1.00  0.00     0.163 HD
BRANCH  17  19
HETATM   19  C4  BES   501      36.474  15.651 189.723  1.00  0.00     0.185 C 
BRANCH  19  20
HETATM   20  C13 BES   501      36.253  14.263 189.111  1.00  0.00     0.040 C 
BRANCH  20  21
HETATM   21  C14 BES   501      35.658  13.319 190.136  1.00  0.00    -0.020 C 
HETATM   22  C15 BES   501      34.263  12.892 189.676  1.00  0.00     0.009 C 
HETATM   23  C16 BES   501      36.527  12.117 190.330  1.00  0.00     0.009 C 
ENDBRANCH  20  21
ENDBRANCH  19  20
BRANCH  19  24
HETATM   24  C5  BES   501      35.196  16.417 189.636  1.00  0.00     0.196 C 
HETATM   25  O1  BES   501      34.425  16.451 190.634  1.00  0.00    -0.646 OA
HETATM   26  O4  BES   501      34.967  17.049 188.557  1.00  0.00    -0.646 OA
ENDBRANCH  19  24
ENDBRANCH  17  19
ENDBRANCH  12  15
ENDBRANCH   4  12
ENDBRANCH   1   4
TORSDOF 10
REMARK  9 active torsions:
REMARK  status: ('A' for Active; 'I' for Inactive)
REMARK    1  A    between atoms: C70_1  and  C1_2 
REMARK    2  A    between atoms: C70_1  and  N12_20 
REMARK    3  A    between atoms: C1_2  and  C2_3 
REMARK    4  A    between atoms: C2_3  and  C3_4 
REMARK    5  A    between atoms: C2_3  and  O5_17 
REMARK       I    between atoms: C3_4  and  N1_6 
REMARK    6  A    between atoms: N1_6  and  C4_7 
REMARK    7  A    between atoms: C4_7  and  C13_8 
REMARK    8  A    between atoms: C4_7  and  C5_10 
REMARK    9  A    between atoms: C13_8  and  C7_9 
ROOT
HETATM    1  C70 BES A 501      30.995  18.053 191.652  1.00  6.08     0.232 C 
ENDROOT
BRANCH   1   2
HETATM    2  C1  BES A 501      31.359  19.314 191.141  1.00  6.71     0.068 C 
BRANCH   2   3
HETATM    3  C2  BES A 501      32.144  19.340 189.867  1.00  9.09     0.205 C 
BRANCH   3   4
HETATM    4  C3  BES A 501      33.545  19.791 190.166  1.00  8.29     0.227 C 
HETATM    5  O3  BES A 501      34.117  20.434 189.315  1.00  7.85    -0.277 OA
HETATM    6  N1  BES A 501      34.149  19.443 191.460  1.00  8.97    -0.246 NA
HETATM    7  H7  BES A 501      34.113  18.374 191.516  1.00  8.27     0.131 HD
BRANCH   6   8
HETATM    8  C4  BES A 501      35.504  19.811 191.869  1.00 10.85     0.169 C 
BRANCH   8   9
HETATM    9  C13 BES A 501      35.456  21.086 192.718  1.00  8.22     0.089 C 
BRANCH   9  10
HETATM   10  C7  BES A 501      34.037  21.313 193.271  1.00 11.21     0.029 A 
HETATM   11  C21 BES A 501      33.144  22.538 192.997  1.00  0.00     0.143 A 
HETATM   12  N22 BES A 501      31.817  22.337 193.752  1.00  0.00    -0.254 N 
HETATM   13  C23 BES A 501      31.890  20.989 194.494  1.00  0.00     0.207 A 
HETATM   14  N24 BES A 501      33.262  20.356 194.196  1.00  0.00    -0.353 N 
HETATM   15  H13 BES A 501      33.615  19.417 194.567  1.00  8.23     0.166 HD
ENDBRANCH   9  10
ENDBRANCH   8   9
BRANCH   8  16
HETATM   16  C5  BES A 501      36.036  18.699 192.713  1.00 10.09     0.192 C 
HETATM   17  O1  BES A 501      35.243  18.047 193.448  1.00  5.58    -0.647 OA
HETATM   18  O4  BES A 501      37.273  18.431 192.611  1.00  5.29    -0.647 OA
ENDBRANCH   8  16
ENDBRANCH   6   8
ENDBRANCH   3   4
BRANCH   3  19
HETATM   19  O5  BES A 501      32.177  17.965 189.268  1.00  8.27    -0.387 OA
HETATM   20  H15 BES A 501      33.053  17.472 189.573  1.00  8.22     0.210 HD
ENDBRANCH   3  19
ENDBRANCH   2   3
ENDBRANCH   1   2
BRANCH   1  21
HETATM   21  N12 BES A 501      32.174  17.449 192.399  1.00  8.22    -0.079 N 
HETATM   22  H14 BES A 501      33.008  17.356 191.735  1.00  8.22     0.274 HD
HETATM   23  H15 BES A 501      31.905  16.483 192.770  1.00  8.22     0.274 HD
HETATM   24  H1  BES A 501      32.441  18.084 193.218  1.00  8.22     0.274 HD
ENDBRANCH   1  21
TORSDOF 9
ENDMDL
MODEL 4
REMARK VINA RESULT:    -1.934      4.657      8.218
REMARK INTER + INTRA:          -7.256
REMARK INTER:                  -4.480
REMARK INTRA:                  -2.776
REMARK UNBOUND:                -3.400
REMARK  10 active torsions:
REMARK  status: ('A' for Active; 'I' for Inactive)
REMARK    1  A    between atoms: N2_1  and  C1_2 
REMARK    2  A    between atoms: C1_2  and  C6_3 
REMARK    3  A    between atoms: C1_2  and  C2_10 
REMARK    4  A    between atoms: C6_3  and  C7_4 
REMARK    5  A    between atoms: C2_10  and  O2_11 
REMARK    6  A    between atoms: C2_10  and  C3_12 
REMARK       I    between atoms: C3_12  and  N1_14 
REMARK    7  A    between atoms: N1_14  and  C4_15 
REMARK    8  A    between atoms: C4_15  and  C13_16 
REMARK    9  A    between atoms: C4_15  and  C5_20 
REMARK   10  A    between atoms: C13_16  and  C14_17 
ROOT
HETATM    1  N2  BES   501      36.576  13.296 194.798  1.00  0.00    -0.423 N 
HETATM    2  H1  BES   501      36.017  13.415 193.893  1.00  0.00     0.150 HD
HETATM    3  H2  BES   501      36.811  12.315 195.157  1.00  0.00     0.150 HD
ENDROOT
BRANCH   1   4
HETATM    4  C1  BES   501      37.010  14.453 195.531  1.00  0.00     0.116 C 
BRANCH   4   5
HETATM    5  C6  BES   501      36.418  15.803 195.116  1.00  0.00     0.066 C 
BRANCH   5   6
HETATM    6  C7  BES   501      35.330  16.325 196.070  1.00  0.00    -0.056 A 
HETATM    7  C8  BES   501      34.667  15.465 196.973  1.00  0.00     0.007 A 
HETATM    8  C9  BES   501      33.676  15.975 197.840  1.00  0.00     0.001 A 
HETATM    9  C10 BES   501      33.357  17.330 197.817  1.00  0.00     0.000 A 
HETATM   10  C11 BES   501      34.023  18.187 196.922  1.00  0.00     0.001 A 
HETATM   11  C12 BES   501      35.014  17.679 196.054  1.00  0.00     0.007 A 
ENDBRANCH   5   6
ENDBRANCH   4   5
BRANCH   4  12
HETATM   12  C2  BES   501      38.489  14.552 195.318  1.00  0.00     0.232 C 
BRANCH  12  13
HETATM   13  O2  BES   501      39.026  13.296 195.422  1.00  0.00    -0.384 OA
HETATM   14  H12 BES   501      38.741  12.868 196.337  1.00  0.00     0.210 HD
ENDBRANCH  12  13
BRANCH  12  15
HETATM   15  C3  BES   501      39.077  15.448 196.369  1.00  0.00     0.249 C 
HETATM   16  O3  BES   501      39.969  16.194 196.030  1.00  0.00    -0.271 OA
HETATM   17  N1  BES   501      38.552  15.385 197.740  1.00  0.00    -0.344 N 
HETATM   18  H23 BES   501      37.753  14.700 197.936  1.00  0.00     0.163 HD
BRANCH  17  19
HETATM   19  C4  BES   501      39.043  16.194 198.855  1.00  0.00     0.185 C 
BRANCH  19  20
HETATM   20  C13 BES   501      37.915  16.409 199.870  1.00  0.00     0.040 C 
BRANCH  20  21
HETATM   21  C14 BES   501      36.872  17.356 199.313  1.00  0.00    -0.020 C 
HETATM   22  C15 BES   501      35.883  17.722 200.421  1.00  0.00     0.009 C 
HETATM   23  C16 BES   501      37.506  18.593 198.759  1.00  0.00     0.009 C 
ENDBRANCH  20  21
ENDBRANCH  19  20
BRANCH  19  24
HETATM   24  C5  BES   501      40.139  15.426 199.518  1.00  0.00     0.196 C 
HETATM   25  O1  BES   501      39.846  14.496 200.318  1.00  0.00    -0.646 OA
HETATM   26  O4  BES   501      41.333  15.722 199.199  1.00  0.00    -0.646 OA
ENDBRANCH  19  24
ENDBRANCH  17  19
ENDBRANCH  12  15
ENDBRANCH   4  12
ENDBRANCH   1   4
TORSDOF 10
REMARK  9 active torsions:
REMARK  status: ('A' for Active; 'I' for Inactive)
REMARK    1  A    between atoms: C70_1  and  C1_2 
REMARK    2  A    between atoms: C70_1  and  N12_20 
REMARK    3  A    between atoms: C1_2  and  C2_3 
REMARK    4  A    between atoms: C2_3  and  C3_4 
REMARK    5  A    between atoms: C2_3  and  O5_17 
REMARK       I    between atoms: C3_4  and  N1_6 
REMARK    6  A    between atoms: N1_6  and  C4_7 
REMARK    7  A    between atoms: C4_7  and  C13_8 
REMARK    8  A    between atoms: C4_7  and  C5_10 
REMARK    9  A    between atoms: C13_8  and  C7_9 
ROOT
HETATM    1  C70 BES A 501      42.492  13.017 195.890  1.00  6.08     0.232 C 
ENDROOT
BRANCH   1   2
HETATM    2  C1  BES A 501      41.875  12.033 196.688  1.00  6.71     0.068 C 
BRANCH   2   3
HETATM    3  C2  BES A 501      41.370  12.454 198.032  1.00  9.09     0.205 C 
BRANCH   3   4
HETATM    4  C3  BES A 501      40.160  11.635 198.378  1.00  8.29     0.227 C 
HETATM    5  O3  BES A 501      40.347  10.529 198.834  1.00  7.85    -0.277 OA
HETATM    6  N1  BES A 501      38.822  12.204 198.157  1.00  8.97    -0.246 NA
HETATM    7  H7  BES A 501      38.784  12.451 197.116  1.00  8.27     0.131 HD
BRANCH   6   8
HETATM    8  C4  BES A 501      37.567  11.508 198.442  1.00 10.85     0.169 C 
BRANCH   8   9
HETATM    9  C13 BES A 501      36.433  12.528 198.575  1.00  8.22     0.089 C 
BRANCH   9  10
HETATM   10  C7  BES A 501      36.390  13.105 200.003  1.00 11.21     0.029 A 
HETATM   11  C21 BES A 501      35.240  13.930 200.611  1.00  0.00     0.143 A 
HETATM   12  N22 BES A 501      35.628  14.291 202.057  1.00  0.00    -0.254 N 
HETATM   13  C23 BES A 501      37.017  13.691 202.342  1.00  0.00     0.207 A 
HETATM   14  N24 BES A 501      37.488  12.957 201.072  1.00  0.00    -0.353 N 
HETATM   15  H13 BES A 501      38.415  12.436 200.954  1.00  8.23     0.166 HD
ENDBRANCH   9  10
ENDBRANCH   8   9
BRANCH   8  16
HETATM   16  C5  BES A 501      37.273  10.620 197.277  1.00 10.09     0.192 C 
HETATM   17  O1  BES A 501      37.738  10.915 196.141  1.00  5.58    -0.647 OA
HETATM   18  O4  BES A 501      36.595   9.570 197.502  1.00  5.29    -0.647 OA
ENDBRANCH   8  16
ENDBRANCH   6   8
ENDBRANCH   3   4
BRANCH   3  19
HETATM   19  O5  BES A 501      42.437  12.234 199.063  1.00  8.27    -0.387 OA
HETATM   20  H15 BES A 501      42.950  13.134 199.233  1.00  8.22     0.210 HD
ENDBRANCH   3  19
ENDBRANCH   2   3
ENDBRANCH   1   2
BRANCH   1  21
HETATM   21  N12 BES A 501      42.449  14.355 196.612  1.00  8.22    -0.079 N 
HETATM   22  H14 BES A 501      41.498  14.474 197.086  1.00  8.22     0.274 HD
HETATM   23  H15 BES A 501      42.598  15.146 195.907  1.00  8.22     0.274 HD
HETATM   24  H1  BES A 501      43.222  14.387 197.351  1.00  8.22     0.274 HD
ENDBRANCH   1  21
TORSDOF 9
ENDMDL
MODEL 5
REMARK VINA RESULT:    -1.889      7.198      9.947
REMARK INTER + INTRA:          -7.167
REMARK INTER:                  -4.357
REMARK INTRA:                  -2.810
REMARK UNBOUND:                -3.400
REMARK  10 active torsions:
REMARK  status: ('A' for Active; 'I' for Inactive)
REMARK    1  A    between atoms: N2_1  and  C1_2 
REMARK    2  A    between atoms: C1_2  and  C6_3 
REMARK    3  A    between atoms: C1_2  and  C2_10 
REMARK    4  A    between atoms: C6_3  and  C7_4 
REMARK    5  A    between atoms: C2_10  and  O2_11 
REMARK    6  A    between atoms: C2_10  and  C3_12 
REMARK       I    between atoms: C3_12  and  N1_14 
REMARK    7  A    between atoms: N1_14  and  C4_15 
REMARK    8  A    between atoms: C4_15  and  C13_16 
REMARK    9  A    between atoms: C4_15  and  C5_20 
REMARK   10  A    between atoms: C13_16  and  C14_17 
ROOT
HETATM    1  N2  BES   501      43.730   8.449 193.414  1.00  0.00    -0.423 N 
HETATM    2  H1  BES   501      44.209   7.604 192.967  1.00  0.00     0.150 HD
HETATM    3  H2  BES   501      44.187   9.416 193.356  1.00  0.00     0.150 HD
ENDROOT
BRANCH   1   4
HETATM    4  C1  BES   501      42.475   8.287 194.095  1.00  0.00     0.116 C 
BRANCH   4   5
HETATM    5  C6  BES   501      42.270   6.988 194.879  1.00  0.00     0.066 C 
BRANCH   5   6
HETATM    6  C7  BES   501      42.200   7.185 196.402  1.00  0.00    -0.056 A 
HETATM    7  C8  BES   501      43.241   7.823 197.112  1.00  0.00     0.007 A 
HETATM    8  C9  BES   501      43.145   7.994 198.511  1.00  0.00     0.001 A 
HETATM    9  C10 BES   501      42.019   7.545 199.194  1.00  0.00     0.000 A 
HETATM   10  C11 BES   501      40.980   6.916 198.486  1.00  0.00     0.001 A 
HETATM   11  C12 BES   501      41.074   6.744 197.087  1.00  0.00     0.007 A 
ENDBRANCH   5   6
ENDBRANCH   4   5
BRANCH   4  12
HETATM   12  C2  BES   501      41.418   8.316 193.034  1.00  0.00     0.232 C 
BRANCH  12  13
HETATM   13  O2  BES   501      41.982   8.776 191.874  1.00  0.00    -0.384 OA
HETATM   14  H12 BES   501      41.469   9.632 191.550  1.00  0.00     0.210 HD
ENDBRANCH  12  13
BRANCH  12  15
HETATM   15  C3  BES   501      40.315   9.237 193.466  1.00  0.00     0.249 C 
HETATM   16  O3  BES   501      39.185   8.944 193.143  1.00  0.00    -0.271 OA
HETATM   17  N1  BES   501      40.647  10.433 194.252  1.00  0.00    -0.344 N 
HETATM   18  H23 BES   501      41.676  10.598 194.498  1.00  0.00     0.163 HD
BRANCH  17  19
HETATM   19  C4  BES   501      39.671  11.414 194.725  1.00  0.00     0.185 C 
BRANCH  19  20
HETATM   20  C13 BES   501      39.901  11.694 196.213  1.00  0.00     0.040 C 
BRANCH  20  21
HETATM   21  C14 BES   501      40.037  10.396 196.984  1.00  0.00    -0.020 C 
HETATM   22  C15 BES   501      40.525  10.701 198.401  1.00  0.00     0.009 C 
HETATM   23  C16 BES   501      38.736   9.659 197.034  1.00  0.00     0.009 C 
ENDBRANCH  20  21
ENDBRANCH  19  20
BRANCH  19  24
HETATM   24  C5  BES   501      39.900  12.678 193.963  1.00  0.00     0.196 C 
HETATM   25  O1  BES   501      40.694  13.543 194.424  1.00  0.00    -0.646 OA
HETATM   26  O4  BES   501      39.308  12.799 192.844  1.00  0.00    -0.646 OA
ENDBRANCH  19  24
ENDBRANCH  17  19
ENDBRANCH  12  15
ENDBRANCH   4  12
ENDBRANCH   1   4
TORSDOF 10
REMARK  9 active torsions:
REMARK  status: ('A' for Active; 'I' for Inactive)
REMARK    1  A    between atoms: C70_1  and  C1_2 
REMARK    2  A    between atoms: C70_1  and  N12_20 
REMARK    3  A    between atoms: C1_2  and  C2_3 
REMARK    4  A    between atoms: C2_3  and  C3_4 
REMARK    5  A    between atoms: C2_3  and  O5_17 
REMARK       I    between atoms: C3_4  and  N1_6 
REMARK    6  A    between atoms: N1_6  and  C4_7 
REMARK    7  A    between atoms: C4_7  and  C13_8 
REMARK    8  A    between atoms: C4_7  and  C5_10 
REMARK    9  A    between atoms: C13_8  and  C7_9 
ROOT
HETATM    1  C70 BES A 501      41.934  12.301 190.262  1.00  6.08     0.232 C 
ENDROOT
BRANCH   1   2
HETATM    2  C1  BES A 501      42.593  12.809 191.399  1.00  6.71     0.068 C 
BRANCH   2   3
HETATM    3  C2  BES A 501      43.913  12.201 191.757  1.00  9.09     0.205 C 
BRANCH   3   4
HETATM    4  C3  BES A 501      44.185  12.446 193.214  1.00  8.29     0.227 C 
HETATM    5  O3  BES A 501      44.035  13.574 193.627  1.00  7.85    -0.277 OA
HETATM    6  N1  BES A 501      44.608  11.322 194.062  1.00  8.97    -0.246 NA
HETATM    7  H7  BES A 501      45.498  10.938 193.607  1.00  8.27     0.131 HD
BRANCH   6   8
HETATM    8  C4  BES A 501      44.913  11.429 195.489  1.00 10.85     0.169 C 
BRANCH   8   9
HETATM    9  C13 BES A 501      43.614  11.364 196.298  1.00  8.22     0.089 C 
BRANCH   9  10
HETATM   10  C7  BES A 501      43.363  12.699 197.025  1.00 11.21     0.029 A 
HETATM   11  C21 BES A 501      43.608  12.975 198.520  1.00  0.00     0.143 A 
HETATM   12  N22 BES A 501      43.219  14.438 198.803  1.00  0.00    -0.254 N 
HETATM   13  C23 BES A 501      42.734  15.066 197.484  1.00  0.00     0.207 A 
HETATM   14  N24 BES A 501      42.823  13.991 196.384  1.00  0.00    -0.353 N 
HETATM   15  H13 BES A 501      42.556  14.119 195.356  1.00  8.23     0.166 HD
ENDBRANCH   9  10
ENDBRANCH   8   9
BRANCH   8  16
HETATM   16  C5  BES A 501      45.760  10.254 195.856  1.00 10.09     0.192 C 
HETATM   17  O1  BES A 501      46.057  10.060 197.067  1.00  5.58    -0.647 OA
HETATM   18  O4  BES A 501      46.107   9.471 194.918  1.00  5.29    -0.647 OA
ENDBRANCH   8  16
ENDBRANCH   6   8
ENDBRANCH   3   4
BRANCH   3  19
HETATM   19  O5  BES A 501      43.877  10.725 191.495  1.00  8.27    -0.387 OA
HETATM   20  H15 BES A 501      43.840  10.208 192.408  1.00  8.22     0.210 HD
ENDBRANCH   3  19
ENDBRANCH   2   3
ENDBRANCH   1   2
BRANCH   1  21
HETATM   21  N12 BES A 501      40.877  11.296 190.694  1.00  8.22    -0.079 N 
HETATM   22  H14 BES A 501      41.334  10.532 191.288  1.00  8.22     0.274 HD
HETATM   23  H15 BES A 501      40.429  10.855 189.829  1.00  8.22     0.274 HD
HETATM   24  H1  BES A 501      40.126  11.794 191.270  1.00  8.22     0.274 HD
ENDBRANCH   1  21
TORSDOF 9
ENDMDL
MODEL 6
REMARK VINA RESULT:    -1.889      5.128      9.098
REMARK INTER + INTRA:          -7.167
REMARK INTER:                  -4.503
REMARK INTRA:                  -2.664
REMARK UNBOUND:                -3.400
REMARK  10 active torsions:
REMARK  status: ('A' for Active; 'I' for Inactive)
REMARK    1  A    between atoms: N2_1  and  C1_2 
REMARK    2  A    between atoms: C1_2  and  C6_3 
REMARK    3  A    between atoms: C1_2  and  C2_10 
REMARK    4  A    between atoms: C6_3  and  C7_4 
REMARK    5  A    between atoms: C2_10  and  O2_11 
REMARK    6  A    between atoms: C2_10  and  C3_12 
REMARK       I    between atoms: C3_12  and  N1_14 
REMARK    7  A    between atoms: N1_14  and  C4_15 
REMARK    8  A    between atoms: C4_15  and  C13_16 
REMARK    9  A    between atoms: C4_15  and  C5_20 
REMARK   10  A    between atoms: C13_16  and  C14_17 
ROOT
HETATM    1  N2  BES   501      41.431  22.366 195.671  1.00  0.00    -0.423 N 
HETATM    2  H1  BES   501      40.805  21.855 196.372  1.00  0.00     0.150 HD
HETATM    3  H2  BES   501      41.816  23.336 195.906  1.00  0.00     0.150 HD
ENDROOT
BRANCH   1   4
HETATM    4  C1  BES   501      41.752  21.751 194.412  1.00  0.00     0.116 C 
BRANCH   4   5
HETATM    5  C6  BES   501      43.137  22.043 193.828  1.00  0.00     0.066 C 
BRANCH   5   6
HETATM    6  C7  BES   501      44.029  20.798 193.688  1.00  0.00    -0.056 A 
HETATM    7  C8  BES   501      45.213  20.650 194.444  1.00  0.00     0.007 A 
HETATM    8  C9  BES   501      46.009  19.493 194.297  1.00  0.00     0.001 A 
HETATM    9  C10 BES   501      45.622  18.486 193.417  1.00  0.00     0.000 A 
HETATM   10  C11 BES   501      44.439  18.631 192.670  1.00  0.00     0.001 A 
HETATM   11  C12 BES   501      43.642  19.788 192.815  1.00  0.00     0.007 A 
ENDBRANCH   5   6
ENDBRANCH   4   5
BRANCH   4  12
HETATM   12  C2  BES   501      40.754  22.274 193.425  1.00  0.00     0.232 C 
BRANCH  12  13
HETATM   13  O2  BES   501      39.730  22.864 194.117  1.00  0.00    -0.384 OA
HETATM   14  H12 BES   501      39.096  22.123 194.504  1.00  0.00     0.210 HD
ENDBRANCH  12  13
BRANCH  12  15
HETATM   15  C3  BES   501      40.228  21.130 192.608  1.00  0.00     0.249 C 
HETATM   16  O3  BES   501      39.920  21.360 191.460  1.00  0.00    -0.271 OA
HETATM   17  N1  BES   501      40.111  19.803 193.226  1.00  0.00    -0.344 N 
HETATM   18  H23 BES   501      40.421  19.699 194.246  1.00  0.00     0.163 HD
BRANCH  17  19
HETATM   19  C4  BES   501      39.605  18.611 192.546  1.00  0.00     0.185 C 
BRANCH  19  20
HETATM   20  C13 BES   501      40.660  17.502 192.596  1.00  0.00     0.040 C 
BRANCH  20  21
HETATM   21  C14 BES   501      40.975  17.004 191.200  1.00  0.00    -0.020 C 
HETATM   22  C15 BES   501      41.304  18.198 190.303  1.00  0.00     0.009 C 
HETATM   23  C16 BES   501      42.120  16.041 191.216  1.00  0.00     0.009 C 
ENDBRANCH  20  21
ENDBRANCH  19  20
BRANCH  19  24
HETATM   24  C5  BES   501      38.395  18.150 193.291  1.00  0.00     0.196 C 
HETATM   25  O1  BES   501      38.360  16.974 193.747  1.00  0.00    -0.646 OA
HETATM   26  O4  BES   501      37.464  18.996 193.472  1.00  0.00    -0.646 OA
ENDBRANCH  19  24
ENDBRANCH  17  19
ENDBRANCH  12  15
ENDBRANCH   4  12
ENDBRANCH   1   4
TORSDOF 10
REMARK  9 active torsions:
REMARK  status: ('A' for Active; 'I' for Inactive)
REMARK    1  A    between atoms: C70_1  and  C1_2 
REMARK    2  A    between atoms: C70_1  and  N12_20 
REMARK    3  A    between atoms: C1_2  and  C2_3 
REMARK    4  A    between atoms: C2_3  and  C3_4 
REMARK    5  A    between atoms: C2_3  and  O5_17 
REMARK       I    between atoms: C3_4  and  N1_6 
REMARK    6  A    between atoms: N1_6  and  C4_7 
REMARK    7  A    between atoms: C4_7  and  C13_8 
REMARK    8  A    between atoms: C4_7  and  C5_10 
REMARK    9  A    between atoms: C13_8  and  C7_9 
ROOT
HETATM    1  C70 BES A 501      36.517  19.406 196.841  1.00  6.08     0.232 C 
ENDROOT
BRANCH   1   2
HETATM    2  C1  BES A 501      37.456  19.875 197.782  1.00  6.71     0.068 C 
BRANCH   2   3
HETATM    3  C2  BES A 501      38.754  20.402 197.253  1.00  9.09     0.205 C 
BRANCH   3   4
HETATM    4  C3  BES A 501      39.839  19.405 197.541  1.00  8.29     0.227 C 
HETATM    5  O3  BES A 501      39.556  18.460 198.243  1.00  7.85    -0.277 OA
HETATM    6  N1  BES A 501      41.174  19.612 196.963  1.00  8.97    -0.246 NA
HETATM    7  H7  BES A 501      41.491  20.574 197.309  1.00  8.27     0.131 HD
BRANCH   6   8
HETATM    8  C4  BES A 501      42.317  18.724 197.174  1.00 10.85     0.169 C 
BRANCH   8   9
HETATM    9  C13 BES A 501      42.574  17.907 195.904  1.00  8.22     0.089 C 
BRANCH   9  10
HETATM   10  C7  BES A 501      41.819  16.565 195.963  1.00 11.21     0.029 A 
HETATM   11  C21 BES A 501      42.460  15.165 195.931  1.00  0.00     0.143 A 
HETATM   12  N22 BES A 501      41.329  14.123 196.012  1.00  0.00    -0.254 N 
HETATM   13  C23 BES A 501      39.989  14.879 196.094  1.00  0.00     0.207 A 
HETATM   14  N24 BES A 501      40.293  16.389 196.063  1.00  0.00    -0.353 N 
HETATM   15  H13 BES A 501      39.570  17.177 196.105  1.00  8.23     0.166 HD
ENDBRANCH   9  10
ENDBRANCH   8   9
BRANCH   8  16
HETATM   16  C5  BES A 501      43.511  19.583 197.436  1.00 10.09     0.192 C 
HETATM   17  O1  BES A 501      43.371  20.836 197.489  1.00  5.58    -0.647 OA
HETATM   18  O4  BES A 501      44.618  18.995 197.640  1.00  5.29    -0.647 OA
ENDBRANCH   8  16
ENDBRANCH   6   8
ENDBRANCH   3   4
BRANCH   3  19
HETATM   19  O5  BES A 501      38.646  20.613 195.772  1.00  8.27    -0.387 OA
HETATM   20  H15 BES A 501      38.612  19.682 195.288  1.00  8.22     0.210 HD
ENDBRANCH   3  19
ENDBRANCH   2   3
ENDBRANCH   1   2
BRANCH   1  21
HETATM   21  N12 BES A 501      36.902  18.003 196.396  1.00  8.22    -0.079 N 
HETATM   22  H14 BES A 501      37.795  18.049 195.809  1.00  8.22     0.274 HD
HETATM   23  H15 BES A 501      36.111  17.585 195.811  1.00  8.22     0.274 HD
HETATM   24  H1  BES A 501      37.072  17.390 197.256  1.00  8.22     0.274 HD
ENDBRANCH   1  21
TORSDOF 9
ENDMDL
MODEL 7
REMARK VINA RESULT:    -1.885      4.172      8.097
REMARK INTER + INTRA:          -7.158
REMARK INTER:                  -4.304
REMARK INTRA:                  -2.853
REMARK UNBOUND:                -3.400
REMARK  10 active torsions:
REMARK  status: ('A' for Active; 'I' for Inactive)
REMARK    1  A    between atoms: N2_1  and  C1_2 
REMARK    2  A    between atoms: C1_2  and  C6_3 
REMARK    3  A    between atoms: C1_2  and  C2_10 
REMARK    4  A    between atoms: C6_3  and  C7_4 
REMARK    5  A    between atoms: C2_10  and  O2_11 
REMARK    6  A    between atoms: C2_10  and  C3_12 
REMARK       I    between atoms: C3_12  and  N1_14 
REMARK    7  A    between atoms: N1_14  and  C4_15 
REMARK    8  A    between atoms: C4_15  and  C13_16 
REMARK    9  A    between atoms: C4_15  and  C5_20 
REMARK   10  A    between atoms: C13_16  and  C14_17 
ROOT
HETATM    1  N2  BES   501      36.627  19.110 198.612  1.00  0.00    -0.423 N 
HETATM    2  H1  BES   501      36.941  18.088 198.557  1.00  0.00     0.150 HD
HETATM    3  H2  BES   501      36.998  19.742 199.392  1.00  0.00     0.150 HD
ENDROOT
BRANCH   1   4
HETATM    4  C1  BES   501      35.707  19.633 197.640  1.00  0.00     0.116 C 
BRANCH   4   5
HETATM    5  C6  BES   501      36.053  19.413 196.165  1.00  0.00     0.066 C 
BRANCH   5   6
HETATM    6  C7  BES   501      34.979  18.637 195.383  1.00  0.00    -0.056 A 
HETATM    7  C8  BES   501      35.048  18.495 193.979  1.00  0.00     0.007 A 
HETATM    8  C9  BES   501      34.050  17.772 193.290  1.00  0.00     0.001 A 
HETATM    9  C10 BES   501      33.001  17.186 193.992  1.00  0.00     0.000 A 
HETATM   10  C11 BES   501      32.937  17.322 195.390  1.00  0.00     0.001 A 
HETATM   11  C12 BES   501      33.934  18.045 196.082  1.00  0.00     0.007 A 
ENDBRANCH   5   6
ENDBRANCH   4   5
BRANCH   4  12
HETATM   12  C2  BES   501      35.671  21.115 197.854  1.00  0.00     0.232 C 
BRANCH  12  13
HETATM   13  O2  BES   501      35.752  21.360 199.199  1.00  0.00    -0.384 OA
HETATM   14  H12 BES   501      35.476  22.354 199.391  1.00  0.00     0.210 HD
ENDBRANCH  12  13
BRANCH  12  15
HETATM   15  C3  BES   501      34.381  21.657 197.312  1.00  0.00     0.249 C 
HETATM   16  O3  BES   501      34.447  22.601 196.556  1.00  0.00    -0.271 OA
HETATM   17  N1  BES   501      33.115  21.029 197.713  1.00  0.00    -0.344 N 
HETATM   18  H23 BES   501      33.163  20.191 198.378  1.00  0.00     0.163 HD
BRANCH  17  19
HETATM   19  C4  BES   501      31.793  21.467 197.267  1.00  0.00     0.185 C 
BRANCH  19  20
HETATM   20  C13 BES   501      31.071  20.304 196.579  1.00  0.00     0.040 C 
BRANCH  20  21
HETATM   21  C14 BES   501      30.787  20.638 195.128  1.00  0.00    -0.020 C 
HETATM   22  C15 BES   501      32.109  20.897 194.404  1.00  0.00     0.009 C 
HETATM   23  C16 BES   501      30.039  19.531 194.455  1.00  0.00     0.009 C 
ENDBRANCH  20  21
ENDBRANCH  19  20
BRANCH  19  24
HETATM   24  C5  BES   501      31.016  21.856 198.482  1.00  0.00     0.196 C 
HETATM   25  O1  BES   501      30.127  21.077 198.924  1.00  0.00    -0.646 OA
HETATM   26  O4  BES   501      31.329  22.950 199.048  1.00  0.00    -0.646 OA
ENDBRANCH  19  24
ENDBRANCH  17  19
ENDBRANCH  12  15
ENDBRANCH   4  12
ENDBRANCH   1   4
TORSDOF 10
REMARK  9 active torsions:
REMARK  status: ('A' for Active; 'I' for Inactive)
REMARK    1  A    between atoms: C70_1  and  C1_2 
REMARK    2  A    between atoms: C70_1  and  N12_20 
REMARK    3  A    between atoms: C1_2  and  C2_3 
REMARK    4  A    between atoms: C2_3  and  C3_4 
REMARK    5  A    between atoms: C2_3  and  O5_17 
REMARK       I    between atoms: C3_4  and  N1_6 
REMARK    6  A    between atoms: N1_6  and  C4_7 
REMARK    7  A    between atoms: C4_7  and  C13_8 
REMARK    8  A    between atoms: C4_7  and  C5_10 
REMARK    9  A    between atoms: C13_8  and  C7_9 
ROOT
HETATM    1  C70 BES A 501      33.058  21.535 201.927  1.00  6.08     0.232 C 
ENDROOT
BRANCH   1   2
HETATM    2  C1  BES A 501      32.768  20.308 201.298  1.00  6.71     0.068 C 
BRANCH   2   3
HETATM    3  C2  BES A 501      33.791  19.221 201.406  1.00  9.09     0.205 C 
BRANCH   3   4
HETATM    4  C3  BES A 501      33.631  18.283 200.244  1.00  8.29     0.227 C 
HETATM    5  O3  BES A 501      32.779  18.548 199.427  1.00  7.85    -0.277 OA
HETATM    6  N1  BES A 501      34.506  17.106 200.148  1.00  8.97    -0.246 NA
HETATM    7  H7  BES A 501      34.352  16.558 201.055  1.00  8.27     0.131 HD
BRANCH   6   8
HETATM    8  C4  BES A 501      34.446  16.112 199.076  1.00 10.85     0.169 C 
BRANCH   8   9
HETATM    9  C13 BES A 501      35.850  15.562 198.806  1.00  8.22     0.089 C 
BRANCH   9  10
HETATM   10  C7  BES A 501      36.084  15.396 197.292  1.00 11.21     0.029 A 
HETATM   11  C21 BES A 501      37.279  15.950 196.495  1.00  0.00     0.143 A 
HETATM   12  N22 BES A 501      37.097  15.543 195.021  1.00  0.00    -0.254 N 
HETATM   13  C23 BES A 501      35.789  14.738 194.907  1.00  0.00     0.207 A 
HETATM   14  N24 BES A 501      35.163  14.647 196.312  1.00  0.00    -0.353 N 
HETATM   15  H13 BES A 501      34.249  14.150 196.561  1.00  8.23     0.166 HD
ENDBRANCH   9  10
ENDBRANCH   8   9
BRANCH   8  16
HETATM   16  C5  BES A 501      33.580  14.992 199.551  1.00 10.09     0.192 C 
HETATM   17  O1  BES A 501      33.031  14.233 198.704  1.00  5.58    -0.647 OA
HETATM   18  O4  BES A 501      33.475  14.829 200.805  1.00  5.29    -0.647 OA
ENDBRANCH   8  16
ENDBRANCH   6   8
ENDBRANCH   3   4
BRANCH   3  19
HETATM   19  O5  BES A 501      35.166  19.820 201.382  1.00  8.27    -0.387 OA
HETATM   20  H15 BES A 501      35.246  20.543 202.139  1.00  8.22     0.210 HD
ENDBRANCH   3  19
ENDBRANCH   2   3
ENDBRANCH   1   2
BRANCH   1  21
HETATM   21  N12 BES A 501      33.682  22.487 200.918  1.00  8.22    -0.079 N 
HETATM   22  H14 BES A 501      34.061  21.929 200.088  1.00  8.22     0.274 HD
HETATM   23  H15 BES A 501      34.482  23.024 201.382  1.00  8.22     0.274 HD
HETATM   24  H1  BES A 501      32.941  23.178 200.574  1.00  8.22     0.274 HD
ENDBRANCH   1  21
TORSDOF 9
ENDMDL
MODEL 8
REMARK VINA RESULT:    -1.883      6.077      9.752
REMARK INTER + INTRA:          -7.154
REMARK INTER:                  -4.011
REMARK INTRA:                  -3.143
REMARK UNBOUND:                -3.400
REMARK  10 active torsions:
REMARK  status: ('A' for Active; 'I' for Inactive)
REMARK    1  A    between atoms: N2_1  and  C1_2 
REMARK    2  A    between atoms: C1_2  and  C6_3 
REMARK    3  A    between atoms: C1_2  and  C2_10 
REMARK    4  A    between atoms: C6_3  and  C7_4 
REMARK    5  A    between atoms: C2_10  and  O2_11 
REMARK    6  A    between atoms: C2_10  and  C3_12 
REMARK       I    between atoms: C3_12  and  N1_14 
REMARK    7  A    between atoms: N1_14  and  C4_15 
REMARK    8  A    between atoms: C4_15  and  C13_16 
REMARK    9  A    between atoms: C4_15  and  C5_20 
REMARK   10  A    between atoms: C13_16  and  C14_17 
ROOT
HETATM    1  N2  BES   501      40.125  20.476 194.937  1.00  0.00    -0.423 N 
HETATM    2  H1  BES   501      40.441  21.151 195.704  1.00  0.00     0.150 HD
HETATM    3  H2  BES   501      39.228  20.674 194.387  1.00  0.00     0.150 HD
ENDROOT
BRANCH   1   4
HETATM    4  C1  BES   501      40.903  19.304 194.645  1.00  0.00     0.116 C 
BRANCH   4   5
HETATM    5  C6  BES   501      42.059  19.465 193.652  1.00  0.00     0.066 C 
BRANCH   5   6
HETATM    6  C7  BES   501      43.433  19.090 194.231  1.00  0.00    -0.056 A 
HETATM    7  C8  BES   501      43.639  18.972 195.624  1.00  0.00     0.007 A 
HETATM    8  C9  BES   501      44.912  18.621 196.125  1.00  0.00     0.001 A 
HETATM    9  C10 BES   501      45.966  18.379 195.249  1.00  0.00     0.000 A 
HETATM   10  C11 BES   501      45.758  18.491 193.862  1.00  0.00     0.001 A 
HETATM   11  C12 BES   501      44.486  18.841 193.359  1.00  0.00     0.007 A 
ENDBRANCH   5   6
ENDBRANCH   4   5
BRANCH   4  12
HETATM   12  C2  BES   501      39.956  18.314 194.040  1.00  0.00     0.232 C 
BRANCH  12  13
HETATM   13  O2  BES   501      38.777  18.364 194.734  1.00  0.00    -0.384 OA
HETATM   14  H12 BES   501      37.986  18.537 194.068  1.00  0.00     0.210 HD
ENDBRANCH  12  13
BRANCH  12  15
HETATM   15  C3  BES   501      40.553  16.940 194.143  1.00  0.00     0.249 C 
HETATM   16  O3  BES   501      40.582  16.269 193.136  1.00  0.00    -0.271 OA
HETATM   17  N1  BES   501      41.067  16.478 195.439  1.00  0.00    -0.344 N 
HETATM   18  H23 BES   501      41.005  17.152 196.269  1.00  0.00     0.163 HD
BRANCH  17  19
HETATM   19  C4  BES   501      41.660  15.162 195.676  1.00  0.00     0.185 C 
BRANCH  19  20
HETATM   20  C13 BES   501      43.104  15.328 196.159  1.00  0.00     0.040 C 
BRANCH  20  21
HETATM   21  C14 BES   501      44.062  14.616 195.225  1.00  0.00    -0.020 C 
HETATM   22  C15 BES   501      43.935  15.213 193.823  1.00  0.00     0.009 C 
HETATM   23  C16 BES   501      45.474  14.733 195.709  1.00  0.00     0.009 C 
ENDBRANCH  20  21
ENDBRANCH  19  20
BRANCH  19  24
HETATM   24  C5  BES   501      40.870  14.502 196.758  1.00  0.00     0.196 C 
HETATM   25  O1  BES   501      41.403  14.310 197.885  1.00  0.00    -0.646 OA
HETATM   26  O4  BES   501      39.661  14.205 196.498  1.00  0.00    -0.646 OA
ENDBRANCH  19  24
ENDBRANCH  17  19
ENDBRANCH  12  15
ENDBRANCH   4  12
ENDBRANCH   1   4
TORSDOF 10
REMARK  9 active torsions:
REMARK  status: ('A' for Active; 'I' for Inactive)
REMARK    1  A    between atoms: C70_1  and  C1_2 
REMARK    2  A    between atoms: C70_1  and  N12_20 
REMARK    3  A    between atoms: C1_2  and  C2_3 
REMARK    4  A    between atoms: C2_3  and  C3_4 
REMARK    5  A    between atoms: C2_3  and  O5_17 
REMARK       I    between atoms: C3_4  and  N1_6 
REMARK    6  A    between atoms: N1_6  and  C4_7 
REMARK    7  A    between atoms: C4_7  and  C13_8 
REMARK    8  A    between atoms: C4_7  and  C5_10 
REMARK    9  A    between atoms: C13_8  and  C7_9 
ROOT
HETATM    1  C70 BES A 501      40.685  12.526 201.288  1.00  6.08     0.232 C 
ENDROOT
BRANCH   1   2
HETATM    2  C1  BES A 501      40.376  13.866 201.593  1.00  6.71     0.068 C 
BRANCH   2   3
HETATM    3  C2  BES A 501      39.193  14.472 200.905  1.00  9.09     0.205 C 
BRANCH   3   4
HETATM    4  C3  BES A 501      39.435  15.943 200.720  1.00  8.29     0.227 C 
HETATM    5  O3  BES A 501      39.134  16.676 201.635  1.00  7.85    -0.277 OA
HETATM    6  N1  BES A 501      40.022  16.419 199.460  1.00  8.97    -0.246 NA
HETATM    7  H7  BES A 501      39.362  16.080 198.689  1.00  8.27     0.131 HD
BRANCH   6   8
HETATM    8  C4  BES A 501      40.298  17.822 199.151  1.00 10.85     0.169 C 
BRANCH   8   9
HETATM    9  C13 BES A 501      41.753  17.971 198.694  1.00  8.22     0.089 C 
BRANCH   9  10
HETATM   10  C7  BES A 501      42.707  17.299 199.700  1.00 11.21     0.029 A 
HETATM   11  C21 BES A 501      43.539  18.019 200.778  1.00  0.00     0.143 A 
HETATM   12  N22 BES A 501      44.342  16.955 201.548  1.00  0.00    -0.254 N 
HETATM   13  C23 BES A 501      44.007  15.577 200.947  1.00  0.00     0.207 A 
HETATM   14  N24 BES A 501      42.995  15.790 199.804  1.00  0.00    -0.353 N 
HETATM   15  H13 BES A 501      42.569  15.024 199.191  1.00  8.23     0.166 HD
ENDBRANCH   9  10
ENDBRANCH   8   9
BRANCH   8  16
HETATM   16  C5  BES A 501      39.403  18.218 198.023  1.00 10.09     0.192 C 
HETATM   17  O1  BES A 501      39.319  19.434 197.697  1.00  5.58    -0.647 OA
HETATM   18  O4  BES A 501      38.797  17.287 197.407  1.00  5.29    -0.647 OA
ENDBRANCH   8  16
ENDBRANCH   6   8
ENDBRANCH   3   4
BRANCH   3  19
HETATM   19  O5  BES A 501      39.001  13.823 199.567  1.00  8.27    -0.387 OA
HETATM   20  H15 BES A 501      38.783  12.804 199.700  1.00  8.22     0.210 HD
ENDBRANCH   3  19
ENDBRANCH   2   3
ENDBRANCH   1   2
BRANCH   1  21
HETATM   21  N12 BES A 501      41.708  12.483 200.163  1.00  8.22    -0.079 N 
HETATM   22  H14 BES A 501      42.657  12.183 200.554  1.00  8.22     0.274 HD
HETATM   23  H15 BES A 501      41.794  13.454 199.723  1.00  8.22     0.274 HD
HETATM   24  H1  BES A 501      41.391  11.782 199.420  1.00  8.22     0.274 HD
ENDBRANCH   1  21
TORSDOF 9
ENDMDL
MODEL 9
REMARK VINA RESULT:    -1.872      8.304     11.938
REMARK INTER + INTRA:          -7.133
REMARK INTER:                  -3.792
REMARK INTRA:                  -3.341
REMARK UNBOUND:                -3.400
REMARK  10 active torsions:
REMARK  status: ('A' for Active; 'I' for Inactive)
REMARK    1  A    between atoms: N2_1  and  C1_2 
REMARK    2  A    between atoms: C1_2  and  C6_3 
REMARK    3  A    between atoms: C1_2  and  C2_10 
REMARK    4  A    between atoms: C6_3  and  C7_4 
REMARK    5  A    between atoms: C2_10  and  O2_11 
REMARK    6  A    between atoms: C2_10  and  C3_12 
REMARK       I    between atoms: C3_12  and  N1_14 
REMARK    7  A    between atoms: N1_14  and  C4_15 
REMARK    8  A    between atoms: C4_15  and  C13_16 
REMARK    9  A    between atoms: C4_15  and  C5_20 
REMARK   10  A    between atoms: C13_16  and  C14_17 
ROOT
HETATM    1  N2  BES   501      44.779  21.889 199.509  1.00  0.00    -0.423 N 
HETATM    2  H1  BES   501      44.595  22.780 198.946  1.00  0.00     0.150 HD
HETATM    3  H2  BES   501      45.507  21.182 199.168  1.00  0.00     0.150 HD
ENDROOT
BRANCH   1   4
HETATM    4  C1  BES   501      44.049  21.640 200.721  1.00  0.00     0.116 C 
BRANCH   4   5
HETATM    5  C6  BES   501      43.031  22.700 201.151  1.00  0.00     0.066 C 
BRANCH   5   6
HETATM    6  C7  BES   501      41.579  22.194 201.173  1.00  0.00    -0.056 A 
HETATM    7  C8  BES   501      40.541  22.957 201.755  1.00  0.00     0.007 A 
HETATM    8  C9  BES   501      39.216  22.468 201.756  1.00  0.00     0.001 A 
HETATM    9  C10 BES   501      38.925  21.238 201.172  1.00  0.00     0.000 A 
HETATM   10  C11 BES   501      39.957  20.483 200.587  1.00  0.00     0.001 A 
HETATM   11  C12 BES   501      41.283  20.970 200.585  1.00  0.00     0.007 A 
ENDBRANCH   5   6
ENDBRANCH   4   5
BRANCH   4  12
HETATM   12  C2  BES   501      45.070  21.562 201.815  1.00  0.00     0.232 C 
BRANCH  12  13
HETATM   13  O2  BES   501      46.127  20.814 201.368  1.00  0.00    -0.384 OA
HETATM   14  H12 BES   501      45.784  20.098 200.682  1.00  0.00     0.210 HD
ENDBRANCH  12  13
BRANCH  12  15
HETATM   15  C3  BES   501      44.452  20.907 203.016  1.00  0.00     0.249 C 
HETATM   16  O3  BES   501      44.616  21.444 204.089  1.00  0.00    -0.271 OA
HETATM   17  N1  BES   501      43.687  19.666 202.841  1.00  0.00    -0.344 N 
HETATM   18  H23 BES   501      43.590  19.276 201.848  1.00  0.00     0.163 HD
BRANCH  17  19
HETATM   19  C4  BES   501      43.047  18.925 203.926  1.00  0.00     0.185 C 
BRANCH  19  20
HETATM   20  C13 BES   501      41.531  18.895 203.706  1.00  0.00     0.040 C 
BRANCH  20  21
HETATM   21  C14 BES   501      40.886  20.141 204.280  1.00  0.00    -0.020 C 
HETATM   22  C15 BES   501      39.398  19.874 204.513  1.00  0.00     0.009 C 
HETATM   23  C16 BES   501      41.543  20.547 205.561  1.00  0.00     0.009 C 
ENDBRANCH  20  21
ENDBRANCH  19  20
BRANCH  19  24
HETATM   24  C5  BES   501      43.560  17.523 203.878  1.00  0.00     0.196 C 
HETATM   25  O1  BES   501      42.809  16.575 204.236  1.00  0.00    -0.646 OA
HETATM   26  O4  BES   501      44.735  17.349 203.423  1.00  0.00    -0.646 OA
ENDBRANCH  19  24
ENDBRANCH  17  19
ENDBRANCH  12  15
ENDBRANCH   4  12
ENDBRANCH   1   4
TORSDOF 10
REMARK  9 active torsions:
REMARK  status: ('A' for Active; 'I' for Inactive)
REMARK    1  A    between atoms: C70_1  and  C1_2 
REMARK    2  A    between atoms: C70_1  and  N12_20 
REMARK    3  A    between atoms: C1_2  and  C2_3 
REMARK    4  A    between atoms: C2_3  and  C3_4 
REMARK    5  A    between atoms: C2_3  and  O5_17 
REMARK       I    between atoms: C3_4  and  N1_6 
REMARK    6  A    between atoms: N1_6  and  C4_7 
REMARK    7  A    between atoms: C4_7  and  C13_8 
REMARK    8  A    between atoms: C4_7  and  C5_10 
REMARK    9  A    between atoms: C13_8  and  C7_9 
ROOT
HETATM    1  C70 BES A 501      42.189  16.261 200.646  1.00  6.08     0.232 C 
ENDROOT
BRANCH   1   2
HETATM    2  C1  BES A 501      42.607  17.534 200.212  1.00  6.71     0.068 C 
BRANCH   2   3
HETATM    3  C2  BES A 501      43.979  17.643 199.623  1.00  9.09     0.205 C 
BRANCH   3   4
HETATM    4  C3  BES A 501      43.928  18.559 198.433  1.00  8.29     0.227 C 
HETATM    5  O3  BES A 501      44.947  19.141 198.134  1.00  7.85    -0.277 OA
HETATM    6  N1  BES A 501      42.666  18.702 197.694  1.00  8.97    -0.246 NA
HETATM    7  H7  BES A 501      41.947  19.034 198.414  1.00  8.27     0.131 HD
BRANCH   6   8
HETATM    8  C4  BES A 501      42.482  19.567 196.528  1.00 10.85     0.169 C 
BRANCH   8   9
HETATM    9  C13 BES A 501      41.449  18.943 195.584  1.00  8.22     0.089 C 
BRANCH   9  10
HETATM   10  C7  BES A 501      40.686  17.807 196.293  1.00 11.21     0.029 A 
HETATM   11  C21 BES A 501      40.617  16.339 195.831  1.00  0.00     0.143 A 
HETATM   12  N22 BES A 501      39.749  15.565 196.839  1.00  0.00    -0.254 N 
HETATM   13  C23 BES A 501      39.280  16.554 197.923  1.00  0.00     0.207 A 
HETATM   14  N24 BES A 501      39.860  17.940 197.585  1.00  0.00    -0.353 N 
HETATM   15  H13 BES A 501      39.715  18.837 198.149  1.00  8.23     0.166 HD
ENDBRANCH   9  10
ENDBRANCH   8   9
BRANCH   8  16
HETATM   16  C5  BES A 501      41.950  20.874 197.018  1.00 10.09     0.192 C 
HETATM   17  O1  BES A 501      40.702  21.032 197.127  1.00  5.58    -0.647 OA
HETATM   18  O4  BES A 501      42.796  21.759 197.350  1.00  5.29    -0.647 OA
ENDBRANCH   8  16
ENDBRANCH   6   8
ENDBRANCH   3   4
BRANCH   3  19
HETATM   19  O5  BES A 501      44.923  18.202 200.646  1.00  8.27    -0.387 OA
HETATM   20  H15 BES A 501      45.909  17.944 200.389  1.00  8.22     0.210 HD
ENDBRANCH   3  19
ENDBRANCH   2   3
ENDBRANCH   1   2
BRANCH   1  21
HETATM   21  N12 BES A 501      43.378  15.503 201.218  1.00  8.22    -0.079 N 
HETATM   22  H14 BES A 501      43.757  14.827 200.482  1.00  8.22     0.274 HD
HETATM   23  H15 BES A 501      43.069  14.954 202.082  1.00  8.22     0.274 HD
HETATM   24  H1  BES A 501      44.144  16.198 201.493  1.00  8.22     0.274 HD
ENDBRANCH   1  21
TORSDOF 9
ENDMDL
