MODEL 1
REMARK VINA RESULT:     0.000      0.000      0.000
REMARK INTER + INTRA:          -1.171
REMARK INTER:                   0.000
REMARK INTRA:                  -1.171
REMARK UNBOUND:                -1.171
REMARK  7 active torsions:
REMARK  status: ('A' for Active; 'I' for Inactive)
REMARK    1  A    between atoms: N2_1  and  C1_2 
REMARK    2  A    between atoms: C1_2  and  C2_3 
REMARK    3  A    between atoms: C2_3  and  C3_4 
REMARK       I    between atoms: C3_4  and  N1_6 
REMARK    4  A    between atoms: N1_6  and  C4_7 
REMARK    5  A    between atoms: C4_7  and  C13_8 
REMARK    6  A    between atoms: C4_7  and  C5_10 
REMARK    7  A    between atoms: C13_8  and  C7_9 
ROOT
HETATM    1  N2  BES   501      34.311  18.473 199.290  1.00  0.00    -0.079 N 
HETATM    2  H12 BES   501      33.704  19.109 199.899  1.00  0.00     0.274 HD
HETATM    3  H13 BES   501      35.209  18.226 199.818  1.00  0.00     0.274 HD
HETATM    4  H2  BES   501      33.774  17.576 199.064  1.00  0.00     0.274 HD
ENDROOT
BRANCH   1   5
HETATM    5  C1  BES   501      34.647  19.152 198.069  1.00  0.00     0.238 C 
BRANCH   5   6
HETATM    6  C2  BES   501      36.118  18.992 197.754  1.00  0.00     0.123 C 
BRANCH   6   7
HETATM    7  C3  BES   501      36.800  18.179 198.838  1.00  0.00     0.199 C 
HETATM    8  O3  BES   501      36.997  16.977 198.702  1.00  0.00    -0.280 OA
HETATM    9  N1  BES   501      37.185  18.859 200.081  1.00  0.00    -0.248 NA
HETATM   10  H7  BES   501      36.289  19.270 200.497  1.00  0.00     0.131 HD
BRANCH   9  11
HETATM   11  C4  BES   501      37.851  18.107 201.164  1.00  0.00     0.169 C 
BRANCH  11  12
HETATM   12  C13 BES   501      39.132  18.816 201.606  1.00  0.00     0.091 C 
BRANCH  12  13
HETATM   13  C7  BES   501      40.138  18.866 200.441  1.00  0.00     0.053 A 
HETATM   14  C14 BES   501      40.942  20.102 199.992  1.00  0.00     0.116 A 
HETATM   15  N15 BES   501      41.817  19.690 198.794  1.00  0.00    -0.359 N 
HETATM   16  C16 BES   501      41.555  18.200 198.503  1.00  0.00     0.207 A 
HETATM   17  H13 BES   501      42.490  20.327 198.258  1.00  0.00     0.166 HD
HETATM   18  N17 BES   501      40.518  17.692 199.521  1.00  0.00    -0.247 N 
ENDBRANCH  12  13
ENDBRANCH  11  12
BRANCH  11  19
HETATM   19  C5  BES   501      36.894  17.824 202.311  1.00  0.00     0.192 C 
HETATM   20  O1  BES   501      35.649  17.842 202.117  1.00  0.00    -0.647 OA
HETATM   21  O4  BES   501      37.336  17.554 203.460  1.00  0.00    -0.647 OA
ENDBRANCH  11  19
ENDBRANCH   9  11
ENDBRANCH   6   7
ENDBRANCH   5   6
ENDBRANCH   1   5
TORSDOF 7
ENDMDL
MODEL 2
REMARK VINA RESULT:     0.001      8.736     10.738
REMARK INTER + INTRA:          -1.171
REMARK INTER:                   0.000
REMARK INTRA:                  -1.171
REMARK UNBOUND:                -1.171
REMARK  7 active torsions:
REMARK  status: ('A' for Active; 'I' for Inactive)
REMARK    1  A    between atoms: N2_1  and  C1_2 
REMARK    2  A    between atoms: C1_2  and  C2_3 
REMARK    3  A    between atoms: C2_3  and  C3_4 
REMARK       I    between atoms: C3_4  and  N1_6 
REMARK    4  A    between atoms: N1_6  and  C4_7 
REMARK    5  A    between atoms: C4_7  and  C13_8 
REMARK    6  A    between atoms: C4_7  and  C5_10 
REMARK    7  A    between atoms: C13_8  and  C7_9 
ROOT
HETATM    1  N2  BES   501      35.892  11.323 200.348  1.00  0.00    -0.079 N 
HETATM    2  H12 BES   501      36.769  11.087 199.784  1.00  0.00     0.274 HD
HETATM    3  H13 BES   501      35.108  10.642 200.088  1.00  0.00     0.274 HD
HETATM    4  H2  BES   501      36.105  11.238 201.393  1.00  0.00     0.274 HD
ENDROOT
BRANCH   1   5
HETATM    5  C1  BES   501      35.477  12.667 200.051  1.00  0.00     0.238 C 
BRANCH   5   6
HETATM    6  C2  BES   501      34.259  12.664 199.153  1.00  0.00     0.123 C 
BRANCH   6   7
HETATM    7  C3  BES   501      33.859  11.239 198.817  1.00  0.00     0.199 C 
HETATM    8  O3  BES   501      32.971  10.666 199.437  1.00  0.00    -0.280 OA
HETATM    9  N1  BES   501      34.592  10.543 197.754  1.00  0.00    -0.248 NA
HETATM   10  H7  BES   501      35.621  10.532 198.044  1.00  0.00     0.131 HD
BRANCH   9  11
HETATM   11  C4  BES   501      34.237   9.155 197.393  1.00  0.00     0.169 C 
BRANCH  11  12
HETATM   12  C13 BES   501      34.010   9.029 195.885  1.00  0.00     0.091 C 
BRANCH  12  13
HETATM   13  C7  BES   501      32.816   9.901 195.456  1.00  0.00     0.053 A 
HETATM   14  C14 BES   501      32.781  10.859 194.250  1.00  0.00     0.116 A 
HETATM   15  N15 BES   501      31.391  11.519 194.205  1.00  0.00    -0.359 N 
HETATM   16  C16 BES   501      30.565  10.968 195.383  1.00  0.00     0.207 A 
HETATM   17  H13 BES   501      31.056  12.234 193.482  1.00  0.00     0.166 HD
HETATM   18  N17 BES   501      31.446   9.969 196.155  1.00  0.00    -0.247 N 
ENDBRANCH  12  13
ENDBRANCH  11  12
BRANCH  11  19
HETATM   19  C5  BES   501      35.258   8.165 197.932  1.00  0.00     0.192 C 
HETATM   20  O1  BES   501      35.999   8.483 198.899  1.00  0.00    -0.647 OA
HETATM   21  O4  BES   501      35.360   7.015 197.426  1.00  0.00    -0.647 OA
ENDBRANCH  11  19
ENDBRANCH   9  11
ENDBRANCH   6   7
ENDBRANCH   5   6
ENDBRANCH   1   5
TORSDOF 7
ENDMDL
MODEL 3
REMARK VINA RESULT:     0.001      6.047      7.115
REMARK INTER + INTRA:          -1.171
REMARK INTER:                   0.000
REMARK INTRA:                  -1.171
REMARK UNBOUND:                -1.171
REMARK  7 active torsions:
REMARK  status: ('A' for Active; 'I' for Inactive)
REMARK    1  A    between atoms: N2_1  and  C1_2 
REMARK    2  A    between atoms: C1_2  and  C2_3 
REMARK    3  A    between atoms: C2_3  and  C3_4 
REMARK       I    between atoms: C3_4  and  N1_6 
REMARK    4  A    between atoms: N1_6  and  C4_7 
REMARK    5  A    between atoms: C4_7  and  C13_8 
REMARK    6  A    between atoms: C4_7  and  C5_10 
REMARK    7  A    between atoms: C13_8  and  C7_9 
ROOT
HETATM    1  N2  BES   501      34.148  16.160 194.206  1.00  0.00    -0.079 N 
HETATM    2  H12 BES   501      34.426  17.112 193.804  1.00  0.00     0.274 HD
HETATM    3  H13 BES   501      34.062  16.235 195.270  1.00  0.00     0.274 HD
HETATM    4  H2  BES   501      33.208  15.859 193.793  1.00  0.00     0.274 HD
ENDROOT
BRANCH   1   5
HETATM    5  C1  BES   501      35.152  15.186 193.874  1.00  0.00     0.238 C 
BRANCH   5   6
HETATM    6  C2  BES   501      35.135  14.042 194.864  1.00  0.00     0.123 C 
BRANCH   6   7
HETATM    7  C3  BES   501      34.077  14.283 195.925  1.00  0.00     0.199 C 
HETATM    8  O3  BES   501      32.967  13.769 195.844  1.00  0.00    -0.280 OA
HETATM    9  N1  BES   501      34.398  15.185 197.037  1.00  0.00    -0.248 NA
HETATM   10  H7  BES   501      34.648  16.131 196.605  1.00  0.00     0.131 HD
BRANCH   9  11
HETATM   11  C4  BES   501      33.399  15.450 198.093  1.00  0.00     0.169 C 
BRANCH  11  12
HETATM   12  C13 BES   501      34.002  15.215 199.479  1.00  0.00     0.091 C 
BRANCH  12  13
HETATM   13  C7  BES   501      34.406  13.737 199.637  1.00  0.00     0.053 A 
HETATM   14  C14 BES   501      35.744  13.220 200.200  1.00  0.00     0.116 A 
HETATM   15  N15 BES   501      35.710  11.681 200.170  1.00  0.00    -0.359 N 
HETATM   16  C16 BES   501      34.351  11.247 199.589  1.00  0.00     0.207 A 
HETATM   17  H13 BES   501      36.492  11.028 200.496  1.00  0.00     0.166 HD
HETATM   18  N17 BES   501      33.546  12.517 199.260  1.00  0.00    -0.247 N 
ENDBRANCH  12  13
ENDBRANCH  11  12
BRANCH  11  19
HETATM   19  C5  BES   501      32.777  16.828 197.933  1.00  0.00     0.192 C 
HETATM   20  O1  BES   501      32.804  17.409 196.816  1.00  0.00    -0.647 OA
HETATM   21  O4  BES   501      32.216  17.392 198.910  1.00  0.00    -0.647 OA
ENDBRANCH  11  19
ENDBRANCH   9  11
ENDBRANCH   6   7
ENDBRANCH   5   6
ENDBRANCH   1   5
TORSDOF 7
ENDMDL
MODEL 4
REMARK VINA RESULT:     0.001      7.040      9.729
REMARK INTER + INTRA:          -1.171
REMARK INTER:                   0.000
REMARK INTRA:                  -1.171
REMARK UNBOUND:                -1.171
REMARK  7 active torsions:
REMARK  status: ('A' for Active; 'I' for Inactive)
REMARK    1  A    between atoms: N2_1  and  C1_2 
REMARK    2  A    between atoms: C1_2  and  C2_3 
REMARK    3  A    between atoms: C2_3  and  C3_4 
REMARK       I    between atoms: C3_4  and  N1_6 
REMARK    4  A    between atoms: N1_6  and  C4_7 
REMARK    5  A    between atoms: C4_7  and  C13_8 
REMARK    6  A    between atoms: C4_7  and  C5_10 
REMARK    7  A    between atoms: C13_8  and  C7_9 
ROOT
HETATM    1  N2  BES   501      43.212  18.347 198.115  1.00  0.00    -0.079 N 
HETATM    2  H12 BES   501      43.060  18.959 198.980  1.00  0.00     0.274 HD
HETATM    3  H13 BES   501      42.925  18.892 197.240  1.00  0.00     0.274 HD
HETATM    4  H2  BES   501      44.245  18.079 198.045  1.00  0.00     0.274 HD
ENDROOT
BRANCH   1   5
HETATM    5  C1  BES   501      42.413  17.157 198.221  1.00  0.00     0.238 C 
BRANCH   5   6
HETATM    6  C2  BES   501      43.268  15.921 198.048  1.00  0.00     0.123 C 
BRANCH   6   7
HETATM    7  C3  BES   501      44.711  16.315 197.788  1.00  0.00     0.199 C 
HETATM    8  O3  BES   501      45.537  16.333 198.693  1.00  0.00    -0.280 OA
HETATM    9  N1  BES   501      45.089  16.716 196.428  1.00  0.00    -0.248 NA
HETATM   10  H7  BES   501      44.472  17.551 196.170  1.00  0.00     0.131 HD
BRANCH   9  11
HETATM   11  C4  BES   501      46.482  17.108 196.129  1.00  0.00     0.169 C 
BRANCH  11  12
HETATM   12  C13 BES   501      47.017  16.328 194.926  1.00  0.00     0.091 C 
BRANCH  12  13
HETATM   13  C7  BES   501      47.057  14.823 195.248  1.00  0.00     0.053 A 
HETATM   14  C14 BES   501      46.550  13.688 194.337  1.00  0.00     0.116 A 
HETATM   15  N15 BES   501      46.790  12.352 195.062  1.00  0.00    -0.359 N 
HETATM   16  C16 BES   501      47.448  12.659 196.421  1.00  0.00     0.207 A 
HETATM   17  H13 BES   501      46.545  11.379 194.688  1.00  0.00     0.166 HD
HETATM   18  N17 BES   501      47.613  14.186 196.535  1.00  0.00    -0.247 N 
ENDBRANCH  12  13
ENDBRANCH  11  12
BRANCH  11  19
HETATM   19  C5  BES   501      46.612  18.615 195.974  1.00  0.00     0.192 C 
HETATM   20  O1  BES   501      45.750  19.381 196.481  1.00  0.00    -0.647 OA
HETATM   21  O4  BES   501      47.590  19.111 195.353  1.00  0.00    -0.647 OA
ENDBRANCH  11  19
ENDBRANCH   9  11
ENDBRANCH   6   7
ENDBRANCH   5   6
ENDBRANCH   1   5
TORSDOF 7
ENDMDL
MODEL 5
REMARK VINA RESULT:     0.001      5.645      7.551
REMARK INTER + INTRA:          -1.171
REMARK INTER:                   0.000
REMARK INTRA:                  -1.171
REMARK UNBOUND:                -1.171
REMARK  7 active torsions:
REMARK  status: ('A' for Active; 'I' for Inactive)
REMARK    1  A    between atoms: N2_1  and  C1_2 
REMARK    2  A    between atoms: C1_2  and  C2_3 
REMARK    3  A    between atoms: C2_3  and  C3_4 
REMARK       I    between atoms: C3_4  and  N1_6 
REMARK    4  A    between atoms: N1_6  and  C4_7 
REMARK    5  A    between atoms: C4_7  and  C13_8 
REMARK    6  A    between atoms: C4_7  and  C5_10 
REMARK    7  A    between atoms: C13_8  and  C7_9 
ROOT
HETATM    1  N2  BES   501      32.715  17.787 195.794  1.00  0.00    -0.079 N 
HETATM    2  H12 BES   501      32.977  18.761 195.438  1.00  0.00     0.274 HD
HETATM    3  H13 BES   501      31.714  17.805 196.173  1.00  0.00     0.274 HD
HETATM    4  H2  BES   501      32.778  17.084 194.990  1.00  0.00     0.274 HD
ENDROOT
BRANCH   1   5
HETATM    5  C1  BES   501      33.617  17.399 196.843  1.00  0.00     0.238 C 
BRANCH   5   6
HETATM    6  C2  BES   501      34.994  17.980 196.606  1.00  0.00     0.123 C 
BRANCH   6   7
HETATM    7  C3  BES   501      35.011  18.779 195.316  1.00  0.00     0.199 C 
HETATM    8  O3  BES   501      34.879  19.998 195.323  1.00  0.00    -0.280 OA
HETATM    9  N1  BES   501      35.147  18.053 194.049  1.00  0.00    -0.248 NA
HETATM   10  H7  BES   501      34.327  17.367 193.996  1.00  0.00     0.131 HD
BRANCH   9  11
HETATM   11  C4  BES   501      35.167  18.789 192.768  1.00  0.00     0.169 C 
BRANCH  11  12
HETATM   12  C13 BES   501      36.380  18.382 191.929  1.00  0.00     0.091 C 
BRANCH  12  13
HETATM   13  C7  BES   501      37.681  18.764 192.660  1.00  0.00     0.053 A 
HETATM   14  C14 BES   501      38.914  17.859 192.844  1.00  0.00     0.116 A 
HETATM   15  N15 BES   501      39.972  18.652 193.633  1.00  0.00    -0.359 N 
HETATM   16  C16 BES   501      39.394  20.047 193.935  1.00  0.00     0.207 A 
HETATM   17  H13 BES   501      40.940  18.297 193.920  1.00  0.00     0.166 HD
HETATM   18  N17 BES   501      37.978  20.115 193.334  1.00  0.00    -0.247 N 
ENDBRANCH  12  13
ENDBRANCH  11  12
BRANCH  11  19
HETATM   19  C5  BES   501      33.847  18.647 192.027  1.00  0.00     0.192 C 
HETATM   20  O1  BES   501      32.799  18.336 192.652  1.00  0.00    -0.647 OA
HETATM   21  O4  BES   501      33.788  18.854 190.785  1.00  0.00    -0.647 OA
ENDBRANCH  11  19
ENDBRANCH   9  11
ENDBRANCH   6   7
ENDBRANCH   5   6
ENDBRANCH   1   5
TORSDOF 7
ENDMDL
MODEL 6
REMARK VINA RESULT:     0.001      8.054      9.049
REMARK INTER + INTRA:          -1.171
REMARK INTER:                   0.000
REMARK INTRA:                  -1.171
REMARK UNBOUND:                -1.171
REMARK  7 active torsions:
REMARK  status: ('A' for Active; 'I' for Inactive)
REMARK    1  A    between atoms: N2_1  and  C1_2 
REMARK    2  A    between atoms: C1_2  and  C2_3 
REMARK    3  A    between atoms: C2_3  and  C3_4 
REMARK       I    between atoms: C3_4  and  N1_6 
REMARK    4  A    between atoms: N1_6  and  C4_7 
REMARK    5  A    between atoms: C4_7  and  C13_8 
REMARK    6  A    between atoms: C4_7  and  C5_10 
REMARK    7  A    between atoms: C13_8  and  C7_9 
ROOT
HETATM    1  N2  BES   501      36.390   6.706 199.080  1.00  0.00    -0.079 N 
HETATM    2  H12 BES   501      35.882   7.084 199.942  1.00  0.00     0.274 HD
HETATM    3  H13 BES   501      37.272   7.286 198.904  1.00  0.00     0.274 HD
HETATM    4  H2  BES   501      36.662   5.685 199.245  1.00  0.00     0.274 HD
ENDROOT
BRANCH   1   5
HETATM    5  C1  BES   501      35.524   6.794 197.936  1.00  0.00     0.238 C 
BRANCH   5   6
HETATM    6  C2  BES   501      35.490   8.207 197.397  1.00  0.00     0.123 C 
BRANCH   6   7
HETATM    7  C3  BES   501      36.363   9.112 198.247  1.00  0.00     0.199 C 
HETATM    8  O3  BES   501      37.510   9.385 197.912  1.00  0.00    -0.280 OA
HETATM    9  N1  BES   501      35.816   9.624 199.508  1.00  0.00    -0.248 NA
HETATM   10  H7  BES   501      35.557   8.772 200.101  1.00  0.00     0.131 HD
BRANCH   9  11
HETATM   11  C4  BES   501      36.630  10.508 200.368  1.00  0.00     0.169 C 
BRANCH  11  12
HETATM   12  C13 BES   501      35.856  11.779 200.725  1.00  0.00     0.091 C 
BRANCH  12  13
HETATM   13  C7  BES   501      35.552  12.588 199.450  1.00  0.00     0.053 A 
HETATM   14  C14 BES   501      34.193  13.211 199.076  1.00  0.00     0.116 A 
HETATM   15  N15 BES   501      34.353  13.924 197.721  1.00  0.00    -0.359 N 
HETATM   16  C16 BES   501      35.811  13.743 197.258  1.00  0.00     0.207 A 
HETATM   17  H13 BES   501      33.586  14.453 197.194  1.00  0.00     0.166 HD
HETATM   18  N17 BES   501      36.551  12.918 198.326  1.00  0.00    -0.247 N 
ENDBRANCH  12  13
ENDBRANCH  11  12
BRANCH  11  19
HETATM   19  C5  BES   501      37.159   9.764 201.584  1.00  0.00     0.192 C 
HETATM   20  O1  BES   501      37.246   8.508 201.570  1.00  0.00    -0.647 OA
HETATM   21  O4  BES   501      37.528  10.398 202.609  1.00  0.00    -0.647 OA
ENDBRANCH  11  19
ENDBRANCH   9  11
ENDBRANCH   6   7
ENDBRANCH   5   6
ENDBRANCH   1   5
TORSDOF 7
ENDMDL
MODEL 7
REMARK VINA RESULT:     0.001      5.823      8.575
REMARK INTER + INTRA:          -1.171
REMARK INTER:                   0.000
REMARK INTRA:                  -1.171
REMARK UNBOUND:                -1.171
REMARK  7 active torsions:
REMARK  status: ('A' for Active; 'I' for Inactive)
REMARK    1  A    between atoms: N2_1  and  C1_2 
REMARK    2  A    between atoms: C1_2  and  C2_3 
REMARK    3  A    between atoms: C2_3  and  C3_4 
REMARK       I    between atoms: C3_4  and  N1_6 
REMARK    4  A    between atoms: N1_6  and  C4_7 
REMARK    5  A    between atoms: C4_7  and  C13_8 
REMARK    6  A    between atoms: C4_7  and  C5_10 
REMARK    7  A    between atoms: C13_8  and  C7_9 
ROOT
HETATM    1  N2  BES   501      44.760  11.141 198.761  1.00  0.00    -0.079 N 
HETATM    2  H12 BES   501      44.216  11.657 197.999  1.00  0.00     0.274 HD
HETATM    3  H13 BES   501      44.963  10.141 198.438  1.00  0.00     0.274 HD
HETATM    4  H2  BES   501      45.682  11.649 198.948  1.00  0.00     0.274 HD
ENDROOT
BRANCH   1   5
HETATM    5  C1  BES   501      43.979  11.104 199.968  1.00  0.00     0.238 C 
BRANCH   5   6
HETATM    6  C2  BES   501      43.027  12.278 200.026  1.00  0.00     0.123 C 
BRANCH   6   7
HETATM    7  C3  BES   501      43.203  13.155 198.800  1.00  0.00     0.199 C 
HETATM    8  O3  BES   501      42.460  13.049 197.831  1.00  0.00    -0.280 OA
HETATM    9  N1  BES   501      44.315  14.113 198.782  1.00  0.00    -0.248 NA
HETATM   10  H7  BES   501      45.213  13.545 198.907  1.00  0.00     0.131 HD
BRANCH   9  11
HETATM   11  C4  BES   501      44.525  14.987 197.610  1.00  0.00     0.169 C 
BRANCH  11  12
HETATM   12  C13 BES   501      44.643  16.450 198.040  1.00  0.00     0.091 C 
BRANCH  12  13
HETATM   13  C7  BES   501      43.328  16.918 198.689  1.00  0.00     0.053 A 
HETATM   14  C14 BES   501      43.198  17.710 200.004  1.00  0.00     0.116 A 
HETATM   15  N15 BES   501      41.702  17.958 200.266  1.00  0.00    -0.359 N 
HETATM   16  C16 BES   501      40.905  17.321 199.112  1.00  0.00     0.207 A 
HETATM   17  H13 BES   501      41.287  18.482 201.102  1.00  0.00     0.166 HD
HETATM   18  N17 BES   501      41.910  16.679 198.138  1.00  0.00    -0.247 N 
ENDBRANCH  12  13
ENDBRANCH  11  12
BRANCH  11  19
HETATM   19  C5  BES   501      45.698  14.511 196.767  1.00  0.00     0.192 C 
HETATM   20  O1  BES   501      46.090  13.316 196.844  1.00  0.00    -0.647 OA
HETATM   21  O4  BES   501      46.277  15.302 195.975  1.00  0.00    -0.647 OA
ENDBRANCH  11  19
ENDBRANCH   9  11
ENDBRANCH   6   7
ENDBRANCH   5   6
ENDBRANCH   1   5
TORSDOF 7
ENDMDL
MODEL 8
REMARK VINA RESULT:     0.001      4.553      5.989
REMARK INTER + INTRA:          -1.171
REMARK INTER:                   0.000
REMARK INTRA:                  -1.171
REMARK UNBOUND:                -1.171
REMARK  7 active torsions:
REMARK  status: ('A' for Active; 'I' for Inactive)
REMARK    1  A    between atoms: N2_1  and  C1_2 
REMARK    2  A    between atoms: C1_2  and  C2_3 
REMARK    3  A    between atoms: C2_3  and  C3_4 
REMARK       I    between atoms: C3_4  and  N1_6 
REMARK    4  A    between atoms: N1_6  and  C4_7 
REMARK    5  A    between atoms: C4_7  and  C13_8 
REMARK    6  A    between atoms: C4_7  and  C5_10 
REMARK    7  A    between atoms: C13_8  and  C7_9 
ROOT
HETATM    1  N2  BES   501      33.930  17.735 198.385  1.00  0.00    -0.079 N 
HETATM    2  H12 BES   501      33.432  17.322 197.534  1.00  0.00     0.274 HD
HETATM    3  H13 BES   501      34.379  16.946 198.952  1.00  0.00     0.274 HD
HETATM    4  H2  BES   501      34.688  18.416 198.060  1.00  0.00     0.274 HD
ENDROOT
BRANCH   1   5
HETATM    5  C1  BES   501      32.979  18.433 199.207  1.00  0.00     0.238 C 
BRANCH   5   6
HETATM    6  C2  BES   501      33.349  18.317 200.669  1.00  0.00     0.123 C 
BRANCH   6   7
HETATM    7  C3  BES   501      34.602  17.476 200.828  1.00  0.00     0.199 C 
HETATM    8  O3  BES   501      35.705  17.997 200.950  1.00  0.00    -0.280 OA
HETATM    9  N1  BES   501      34.470  16.015 200.790  1.00  0.00    -0.248 NA
HETATM   10  H7  BES   501      34.030  15.770 199.846  1.00  0.00     0.131 HD
BRANCH   9  11
HETATM   11  C4  BES   501      35.662  15.157 200.939  1.00  0.00     0.169 C 
BRANCH  11  12
HETATM   12  C13 BES   501      35.439  14.105 202.028  1.00  0.00     0.091 C 
BRANCH  12  13
HETATM   13  C7  BES   501      35.235  14.790 203.391  1.00  0.00     0.053 A 
HETATM   14  C14 BES   501      34.131  14.459 204.414  1.00  0.00     0.116 A 
HETATM   15  N15 BES   501      34.311  15.391 205.627  1.00  0.00    -0.359 N 
HETATM   16  C16 BES   501      35.527  16.297 205.354  1.00  0.00     0.207 A 
HETATM   17  H13 BES   501      33.701  15.406 206.506  1.00  0.00     0.166 HD
HETATM   18  N17 BES   501      36.097  15.925 203.973  1.00  0.00    -0.247 N 
ENDBRANCH  12  13
ENDBRANCH  11  12
BRANCH  11  19
HETATM   19  C5  BES   501      36.087  14.562 199.606  1.00  0.00     0.192 C 
HETATM   20  O1  BES   501      35.732  15.107 198.527  1.00  0.00    -0.647 OA
HETATM   21  O4  BES   501      36.809  13.529 199.568  1.00  0.00    -0.647 OA
ENDBRANCH  11  19
ENDBRANCH   9  11
ENDBRANCH   6   7
ENDBRANCH   5   6
ENDBRANCH   1   5
TORSDOF 7
ENDMDL
MODEL 9
REMARK VINA RESULT:     0.001      6.015      7.727
REMARK INTER + INTRA:          -1.170
REMARK INTER:                   0.000
REMARK INTRA:                  -1.170
REMARK UNBOUND:                -1.171
REMARK  7 active torsions:
REMARK  status: ('A' for Active; 'I' for Inactive)
REMARK    1  A    between atoms: N2_1  and  C1_2 
REMARK    2  A    between atoms: C1_2  and  C2_3 
REMARK    3  A    between atoms: C2_3  and  C3_4 
REMARK       I    between atoms: C3_4  and  N1_6 
REMARK    4  A    between atoms: N1_6  and  C4_7 
REMARK    5  A    between atoms: C4_7  and  C13_8 
REMARK    6  A    between atoms: C4_7  and  C5_10 
REMARK    7  A    between atoms: C13_8  and  C7_9 
ROOT
HETATM    1  N2  BES   501      39.610  16.658 197.584  1.00  0.00    -0.079 N 
HETATM    2  H12 BES   501      39.607  17.395 196.809  1.00  0.00     0.274 HD
HETATM    3  H13 BES   501      39.591  15.682 197.145  1.00  0.00     0.274 HD
HETATM    4  H2  BES   501      40.495  16.765 198.175  1.00  0.00     0.274 HD
ENDROOT
BRANCH   1   5
HETATM    5  C1  BES   501      38.452  16.831 198.417  1.00  0.00     0.238 C 
BRANCH   5   6
HETATM    6  C2  BES   501      38.233  15.613 199.288  1.00  0.00     0.123 C 
BRANCH   6   7
HETATM    7  C3  BES   501      39.291  14.565 198.999  1.00  0.00     0.199 C 
HETATM    8  O3  BES   501      40.288  14.458 199.704  1.00  0.00    -0.280 OA
HETATM    9  N1  BES   501      39.116  13.704 197.824  1.00  0.00    -0.248 NA
HETATM   10  H7  BES   501      39.057  14.350 196.973  1.00  0.00     0.131 HD
BRANCH   9  11
HETATM   11  C4  BES   501      40.121  12.670 197.503  1.00  0.00     0.169 C 
BRANCH  11  12
HETATM   12  C13 BES   501      39.452  11.308 197.304  1.00  0.00     0.091 C 
BRANCH  12  13
HETATM   13  C7  BES   501      38.778  10.854 198.611  1.00  0.00     0.053 A 
HETATM   14  C14 BES   501      37.355  10.278 198.744  1.00  0.00     0.116 A 
HETATM   15  N15 BES   501      37.104   9.964 200.230  1.00  0.00    -0.359 N 
HETATM   16  C16 BES   501      38.373  10.344 201.017  1.00  0.00     0.207 A 
HETATM   17  H13 BES   501      36.207   9.553 200.644  1.00  0.00     0.166 HD
HETATM   18  N17 BES   501      39.406  10.894 200.016  1.00  0.00    -0.247 N 
ENDBRANCH  12  13
ENDBRANCH  11  12
BRANCH  11  19
HETATM   19  C5  BES   501      40.992  13.090 196.330  1.00  0.00     0.192 C 
HETATM   20  O1  BES   501      41.099  14.307 196.024  1.00  0.00    -0.647 OA
HETATM   21  O4  BES   501      41.624  12.227 195.664  1.00  0.00    -0.647 OA
ENDBRANCH  11  19
ENDBRANCH   9  11
ENDBRANCH   6   7
ENDBRANCH   5   6
ENDBRANCH   1   5
TORSDOF 7
ENDMDL
