MODEL 1
REMARK VINA RESULT:    -1.906      0.000      0.000
REMARK INTER + INTRA:          -6.800
REMARK INTER:                  -3.632
REMARK INTRA:                  -3.167
REMARK UNBOUND:                -3.167
REMARK  7 active torsions:
REMARK  status: ('A' for Active; 'I' for Inactive)
REMARK    1  A    between atoms: N2_1  and  C1_2 
REMARK    2  A    between atoms: C1_2  and  C2_3 
REMARK    3  A    between atoms: C2_3  and  C3_4 
REMARK       I    between atoms: C3_4  and  N1_6 
REMARK    4  A    between atoms: N1_6  and  C4_7 
REMARK    5  A    between atoms: C4_7  and  C13_8 
REMARK    6  A    between atoms: C4_7  and  C5_10 
REMARK    7  A    between atoms: C13_8  and  C7_9 
ROOT
HETATM    1  N2  BES   501      32.486  13.047 200.706  1.00  0.00    -0.079 N 
HETATM    2  H1  BES   501      33.362  13.139 200.099  1.00  0.00     0.274 HD
HETATM    3  H2  BES   501      32.391  13.914 201.327  1.00  0.00     0.274 HD
HETATM    4  H1  BES   501      31.624  12.964 200.077  1.00  0.00     0.274 HD
ENDROOT
BRANCH   1   5
HETATM    5  C1  BES   501      32.597  11.843 201.553  1.00  0.00     0.238 C 
BRANCH   5   6
HETATM    6  C2  BES   501      34.012  11.401 201.768  1.00  0.00     0.123 C 
BRANCH   6   7
HETATM    7  C3  BES   501      34.939  12.464 201.252  1.00  0.00     0.199 C 
HETATM    8  O3  BES   501      35.356  13.273 202.049  1.00  0.00    -0.280 OA
HETATM    9  N1  BES   501      35.297  12.470 199.827  1.00  0.00    -0.248 NA
HETATM   10  H7  BES   501      34.370  12.537 199.297  1.00  0.00     0.131 HD
BRANCH   9  11
HETATM   11  C4  BES   501      36.179  13.453 199.198  1.00  0.00     0.169 C 
BRANCH  11  12
HETATM   12  C13 BES   501      36.892  12.814 198.002  1.00  0.00     0.089 C 
BRANCH  12  13
HETATM   13  C7  BES   501      37.927  11.778 198.481  1.00  0.00     0.031 A 
HETATM   14  C21 BES   501      39.303  12.092 199.098  1.00  0.00     0.143 A 
HETATM   15  N22 BES   501      39.993  10.755 199.424  1.00  0.00    -0.254 N 
HETATM   16  C23 BES   501      39.044   9.614 199.011  1.00  0.00     0.209 A 
HETATM   17  N24 BES   501      37.767  10.248 198.429  1.00  0.00    -0.348 N 
HETATM   18  C1  BES   501      36.560   9.493 197.894  1.00  0.00     0.157 C 
ENDBRANCH  12  13
ENDBRANCH  11  12
BRANCH  11  19
HETATM   19  C5  BES   501      35.323  14.571 198.700  1.00  0.00     0.192 C 
HETATM   20  O1  BES   501      34.083  14.384 198.556  1.00  0.00    -0.647 OA
HETATM   21  O4  BES   501      35.890  15.687 198.484  1.00  0.00    -0.647 OA
ENDBRANCH  11  19
ENDBRANCH   9  11
ENDBRANCH   6   7
ENDBRANCH   5   6
ENDBRANCH   1   5
TORSDOF 7
REMARK  10 active torsions:
REMARK  status: ('A' for Active; 'I' for Inactive)
REMARK    1  A    between atoms: N2_1  and  C1_2 
REMARK    2  A    between atoms: C1_2  and  C6_3 
REMARK    3  A    between atoms: C1_2  and  C2_10 
REMARK    4  A    between atoms: C6_3  and  C7_4 
REMARK    5  A    between atoms: C2_10  and  O2_11 
REMARK    6  A    between atoms: C2_10  and  C3_12 
REMARK       I    between atoms: C3_12  and  N1_14 
REMARK    7  A    between atoms: N1_14  and  C4_15 
REMARK    8  A    between atoms: C4_15  and  C13_16 
REMARK    9  A    between atoms: C4_15  and  C5_20 
REMARK   10  A    between atoms: C13_16  and  C14_17 
ROOT
HETATM    1  N2  BES   501      36.500  15.802 195.491  1.00  0.00    -0.423 N 
HETATM    2  H1  BES   501      36.157  16.322 196.361  1.00  0.00     0.150 HD
HETATM    3  H2  BES   501      37.414  16.094 195.018  1.00  0.00     0.150 HD
ENDROOT
BRANCH   1   4
HETATM    4  C1  BES   501      35.731  14.712 194.956  1.00  0.00     0.116 C 
BRANCH   4   5
HETATM    5  C6  BES   501      36.081  14.241 193.541  1.00  0.00     0.066 C 
BRANCH   5   6
HETATM    6  C7  BES   501      36.357  12.732 193.438  1.00  0.00    -0.056 A 
HETATM    7  C8  BES   501      36.984  12.023 194.487  1.00  0.00     0.007 A 
HETATM    8  C9  BES   501      37.219  10.636 194.365  1.00  0.00     0.001 A 
HETATM    9  C10 BES   501      36.822   9.958 193.216  1.00  0.00     0.000 A 
HETATM   10  C11 BES   501      36.191  10.663 192.175  1.00  0.00     0.001 A 
HETATM   11  C12 BES   501      35.955  12.050 192.295  1.00  0.00     0.007 A 
ENDBRANCH   5   6
ENDBRANCH   4   5
BRANCH   4  12
HETATM   12  C2  BES   501      34.311  15.186 194.908  1.00  0.00     0.232 C 
BRANCH  12  13
HETATM   13  O2  BES   501      34.088  15.994 195.991  1.00  0.00    -0.384 OA
HETATM   14  H12 BES   501      33.159  16.470 195.887  1.00  0.00     0.210 HD
ENDBRANCH  12  13
BRANCH  12  15
HETATM   15  C3  BES   501      33.396  13.997 194.960  1.00  0.00     0.249 C 
HETATM   16  O3  BES   501      32.443  13.995 194.213  1.00  0.00    -0.271 OA
HETATM   17  N1  BES   501      33.691  12.906 195.898  1.00  0.00    -0.344 N 
HETATM   18  H23 BES   501      34.566  12.998 196.509  1.00  0.00     0.163 HD
BRANCH  17  19
HETATM   19  C4  BES   501      32.876  11.702 196.055  1.00  0.00     0.185 C 
BRANCH  19  20
HETATM   20  C13 BES   501      33.686  10.474 195.628  1.00  0.00     0.040 C 
BRANCH  20  21
HETATM   21  C14 BES   501      32.920   9.662 194.603  1.00  0.00    -0.020 C 
HETATM   22  C15 BES   501      32.686  10.517 193.357  1.00  0.00     0.009 C 
HETATM   23  C16 BES   501      33.660   8.414 194.240  1.00  0.00     0.009 C 
ENDBRANCH  20  21
ENDBRANCH  19  20
BRANCH  19  24
HETATM   24  C5  BES   501      32.544  11.571 197.505  1.00  0.00     0.196 C 
HETATM   25  O1  BES   501      33.350  10.980 198.274  1.00  0.00    -0.646 OA
HETATM   26  O4  BES   501      31.467  12.115 197.907  1.00  0.00    -0.646 OA
ENDBRANCH  19  24
ENDBRANCH  17  19
ENDBRANCH  12  15
ENDBRANCH   4  12
ENDBRANCH   1   4
TORSDOF 10
ENDMDL
MODEL 2
REMARK VINA RESULT:    -1.872      3.755      5.935
REMARK INTER + INTRA:          -6.736
REMARK INTER:                  -3.572
REMARK INTRA:                  -3.163
REMARK UNBOUND:                -3.167
REMARK  7 active torsions:
REMARK  status: ('A' for Active; 'I' for Inactive)
REMARK    1  A    between atoms: N2_1  and  C1_2 
REMARK    2  A    between atoms: C1_2  and  C2_3 
REMARK    3  A    between atoms: C2_3  and  C3_4 
REMARK       I    between atoms: C3_4  and  N1_6 
REMARK    4  A    between atoms: N1_6  and  C4_7 
REMARK    5  A    between atoms: C4_7  and  C13_8 
REMARK    6  A    between atoms: C4_7  and  C5_10 
REMARK    7  A    between atoms: C13_8  and  C7_9 
ROOT
HETATM    1  N2  BES   501      34.710  17.315 199.178  1.00  0.00    -0.079 N 
HETATM    2  H1  BES   501      33.695  16.989 199.087  1.00  0.00     0.274 HD
HETATM    3  H2  BES   501      35.309  16.511 199.553  1.00  0.00     0.274 HD
HETATM    4  H1  BES   501      35.076  17.614 198.218  1.00  0.00     0.274 HD
ENDROOT
BRANCH   1   5
HETATM    5  C1  BES   501      34.779  18.458 200.110  1.00  0.00     0.238 C 
BRANCH   5   6
HETATM    6  C2  BES   501      35.972  18.411 201.015  1.00  0.00     0.123 C 
BRANCH   6   7
HETATM    7  C3  BES   501      36.740  17.149 200.746  1.00  0.00     0.199 C 
HETATM    8  O3  BES   501      36.493  16.189 201.440  1.00  0.00    -0.280 OA
HETATM    9  N1  BES   501      37.736  17.134 199.666  1.00  0.00    -0.248 NA
HETATM   10  H7  BES   501      38.429  17.914 199.903  1.00  0.00     0.131 HD
BRANCH   9  11
HETATM   11  C4  BES   501      38.556  15.976 199.309  1.00  0.00     0.169 C 
BRANCH  11  12
HETATM   12  C13 BES   501      37.885  15.202 198.170  1.00  0.00     0.089 C 
BRANCH  12  13
HETATM   13  C7  BES   501      37.343  13.853 198.681  1.00  0.00     0.031 A 
HETATM   14  C21 BES   501      35.889  13.560 199.094  1.00  0.00     0.143 A 
HETATM   15  N22 BES   501      35.808  12.088 199.537  1.00  0.00    -0.254 N 
HETATM   16  C23 BES   501      37.212  11.470 199.397  1.00  0.00     0.209 A 
HETATM   17  N24 BES   501      38.160  12.562 198.868  1.00  0.00    -0.348 N 
HETATM   18  C1  BES   501      39.644  12.394 198.581  1.00  0.00     0.157 C 
ENDBRANCH  12  13
ENDBRANCH  11  12
BRANCH  11  19
HETATM   19  C5  BES   501      39.872  16.491 198.825  1.00  0.00     0.192 C 
HETATM   20  O1  BES   501      39.946  17.661 198.359  1.00  0.00    -0.647 OA
HETATM   21  O4  BES   501      40.878  15.725 198.950  1.00  0.00    -0.647 OA
ENDBRANCH  11  19
ENDBRANCH   9  11
ENDBRANCH   6   7
ENDBRANCH   5   6
ENDBRANCH   1   5
TORSDOF 7
REMARK  10 active torsions:
REMARK  status: ('A' for Active; 'I' for Inactive)
REMARK    1  A    between atoms: N2_1  and  C1_2 
REMARK    2  A    between atoms: C1_2  and  C6_3 
REMARK    3  A    between atoms: C1_2  and  C2_10 
REMARK    4  A    between atoms: C6_3  and  C7_4 
REMARK    5  A    between atoms: C2_10  and  O2_11 
REMARK    6  A    between atoms: C2_10  and  C3_12 
REMARK       I    between atoms: C3_12  and  N1_14 
REMARK    7  A    between atoms: N1_14  and  C4_15 
REMARK    8  A    between atoms: C4_15  and  C13_16 
REMARK    9  A    between atoms: C4_15  and  C5_20 
REMARK   10  A    between atoms: C13_16  and  C14_17 
ROOT
HETATM    1  N2  BES   501      41.967  14.480 196.391  1.00  0.00    -0.423 N 
HETATM    2  H1  BES   501      41.656  13.824 197.177  1.00  0.00     0.150 HD
HETATM    3  H2  BES   501      43.003  14.724 196.277  1.00  0.00     0.150 HD
ENDROOT
BRANCH   1   4
HETATM    4  C1  BES   501      40.995  15.034 195.490  1.00  0.00     0.116 C 
BRANCH   4   5
HETATM    5  C6  BES   501      40.807  14.324 194.146  1.00  0.00     0.066 C 
BRANCH   5   6
HETATM    6  C7  BES   501      39.431  13.657 193.982  1.00  0.00    -0.056 A 
HETATM    7  C8  BES   501      38.933  13.297 192.710  1.00  0.00     0.007 A 
HETATM    8  C9  BES   501      37.668  12.681 192.591  1.00  0.00     0.001 A 
HETATM    9  C10 BES   501      36.911  12.416 193.729  1.00  0.00     0.000 A 
HETATM   10  C11 BES   501      37.410  12.769 194.996  1.00  0.00     0.001 A 
HETATM   11  C12 BES   501      38.675  13.384 195.116  1.00  0.00     0.007 A 
ENDBRANCH   5   6
ENDBRANCH   4   5
BRANCH   4  12
HETATM   12  C2  BES   501      41.459  16.423 195.177  1.00  0.00     0.232 C 
BRANCH  12  13
HETATM   13  O2  BES   501      41.989  16.969 196.316  1.00  0.00    -0.384 OA
HETATM   14  H12 BES   501      43.014  17.141 196.178  1.00  0.00     0.210 HD
ENDBRANCH  12  13
BRANCH  12  15
HETATM   15  C3  BES   501      40.287  17.239 194.715  1.00  0.00     0.249 C 
HETATM   16  O3  BES   501      40.452  17.958 193.754  1.00  0.00    -0.271 OA
HETATM   17  N1  BES   501      39.012  17.132 195.435  1.00  0.00    -0.344 N 
HETATM   18  H23 BES   501      38.964  16.459 196.267  1.00  0.00     0.163 HD
BRANCH  17  19
HETATM   19  C4  BES   501      37.801  17.878 195.096  1.00  0.00     0.185 C 
BRANCH  19  20
HETATM   20  C13 BES   501      36.632  16.906 194.908  1.00  0.00     0.040 C 
BRANCH  20  21
HETATM   21  C14 BES   501      36.718  16.224 193.558  1.00  0.00    -0.020 C 
HETATM   22  C15 BES   501      35.348  15.648 193.197  1.00  0.00     0.009 C 
HETATM   23  C16 BES   501      37.170  17.180 192.499  1.00  0.00     0.009 C 
ENDBRANCH  20  21
ENDBRANCH  19  20
BRANCH  19  24
HETATM   24  C5  BES   501      37.490  18.778 196.247  1.00  0.00     0.196 C 
HETATM   25  O1  BES   501      36.682  18.390 197.135  1.00  0.00    -0.646 OA
HETATM   26  O4  BES   501      38.104  19.889 196.300  1.00  0.00    -0.646 OA
ENDBRANCH  19  24
ENDBRANCH  17  19
ENDBRANCH  12  15
ENDBRANCH   4  12
ENDBRANCH   1   4
TORSDOF 10
ENDMDL
MODEL 3
REMARK VINA RESULT:    -1.862      7.818     11.058
REMARK INTER + INTRA:          -6.717
REMARK INTER:                  -3.588
REMARK INTRA:                  -3.129
REMARK UNBOUND:                -3.167
REMARK  7 active torsions:
REMARK  status: ('A' for Active; 'I' for Inactive)
REMARK    1  A    between atoms: N2_1  and  C1_2 
REMARK    2  A    between atoms: C1_2  and  C2_3 
REMARK    3  A    between atoms: C2_3  and  C3_4 
REMARK       I    between atoms: C3_4  and  N1_6 
REMARK    4  A    between atoms: N1_6  and  C4_7 
REMARK    5  A    between atoms: C4_7  and  C13_8 
REMARK    6  A    between atoms: C4_7  and  C5_10 
REMARK    7  A    between atoms: C13_8  and  C7_9 
ROOT
HETATM    1  N2  BES   501      44.996  20.396 199.877  1.00  0.00    -0.079 N 
HETATM    2  H1  BES   501      45.362  20.381 200.883  1.00  0.00     0.274 HD
HETATM    3  H2  BES   501      44.244  19.643 199.761  1.00  0.00     0.274 HD
HETATM    4  H1  BES   501      44.574  21.356 199.667  1.00  0.00     0.274 HD
ENDROOT
BRANCH   1   5
HETATM    5  C1  BES   501      46.108  20.130 198.944  1.00  0.00     0.238 C 
BRANCH   5   6
HETATM    6  C2  BES   501      45.734  20.332 197.507  1.00  0.00     0.123 C 
BRANCH   6   7
HETATM    7  C3  BES   501      44.429  21.071 197.442  1.00  0.00     0.199 C 
HETATM    8  O3  BES   501      44.473  22.281 197.461  1.00  0.00    -0.280 OA
HETATM    9  N1  BES   501      43.177  20.307 197.353  1.00  0.00    -0.248 NA
HETATM   10  H7  BES   501      43.167  19.669 198.212  1.00  0.00     0.131 HD
BRANCH   9  11
HETATM   11  C4  BES   501      41.843  20.904 197.294  1.00  0.00     0.169 C 
BRANCH  11  12
HETATM   12  C13 BES   501      40.912  20.004 196.474  1.00  0.00     0.089 C 
BRANCH  12  13
HETATM   13  C7  BES   501      40.187  20.823 195.390  1.00  0.00     0.031 A 
HETATM   14  C21 BES   501      39.630  22.250 195.553  1.00  0.00     0.143 A 
HETATM   15  N22 BES   501      38.989  22.666 194.217  1.00  0.00    -0.254 N 
HETATM   16  C23 BES   501      39.150  21.498 193.226  1.00  0.00     0.209 A 
HETATM   17  N24 BES   501      39.891  20.359 193.952  1.00  0.00    -0.348 N 
HETATM   18  C1  BES   501      40.263  19.011 193.353  1.00  0.00     0.157 C 
ENDBRANCH  12  13
ENDBRANCH  11  12
BRANCH  11  19
HETATM   19  C5  BES   501      41.322  20.979 198.692  1.00  0.00     0.192 C 
HETATM   20  O1  BES   501      40.363  21.755 198.955  1.00  0.00    -0.647 OA
HETATM   21  O4  BES   501      41.854  20.211 199.553  1.00  0.00    -0.647 OA
ENDBRANCH  11  19
ENDBRANCH   9  11
ENDBRANCH   6   7
ENDBRANCH   5   6
ENDBRANCH   1   5
TORSDOF 7
REMARK  10 active torsions:
REMARK  status: ('A' for Active; 'I' for Inactive)
REMARK    1  A    between atoms: N2_1  and  C1_2 
REMARK    2  A    between atoms: C1_2  and  C6_3 
REMARK    3  A    between atoms: C1_2  and  C2_10 
REMARK    4  A    between atoms: C6_3  and  C7_4 
REMARK    5  A    between atoms: C2_10  and  O2_11 
REMARK    6  A    between atoms: C2_10  and  C3_12 
REMARK       I    between atoms: C3_12  and  N1_14 
REMARK    7  A    between atoms: N1_14  and  C4_15 
REMARK    8  A    between atoms: C4_15  and  C13_16 
REMARK    9  A    between atoms: C4_15  and  C5_20 
REMARK   10  A    between atoms: C13_16  and  C14_17 
ROOT
HETATM    1  N2  BES   501      41.025  17.355 199.063  1.00  0.00    -0.423 N 
HETATM    2  H1  BES   501      40.842  16.861 199.995  1.00  0.00     0.150 HD
HETATM    3  H2  BES   501      40.678  18.356 198.911  1.00  0.00     0.150 HD
ENDROOT
BRANCH   1   4
HETATM    4  C1  BES   501      41.738  16.674 198.017  1.00  0.00     0.116 C 
BRANCH   4   5
HETATM    5  C6  BES   501      41.447  15.182 197.833  1.00  0.00     0.066 C 
BRANCH   5   6
HETATM    6  C7  BES   501      41.048  14.798 196.399  1.00  0.00    -0.056 A 
HETATM    7  C8  BES   501      41.265  13.495 195.896  1.00  0.00     0.007 A 
HETATM    8  C9  BES   501      40.882  13.171 194.576  1.00  0.00     0.001 A 
HETATM    9  C10 BES   501      40.280  14.130 193.768  1.00  0.00     0.000 A 
HETATM   10  C11 BES   501      40.058  15.425 194.271  1.00  0.00     0.001 A 
HETATM   11  C12 BES   501      40.439  15.751 195.591  1.00  0.00     0.007 A 
ENDBRANCH   5   6
ENDBRANCH   4   5
BRANCH   4  12
HETATM   12  C2  BES   501      43.191  16.787 198.360  1.00  0.00     0.232 C 
BRANCH  12  13
HETATM   13  O2  BES   501      43.398  17.992 198.976  1.00  0.00    -0.384 OA
HETATM   14  H12 BES   501      43.092  18.768 198.341  1.00  0.00     0.210 HD
ENDBRANCH  12  13
BRANCH  12  15
HETATM   15  C3  BES   501      44.000  16.712 197.097  1.00  0.00     0.249 C 
HETATM   16  O3  BES   501      44.984  16.006 197.106  1.00  0.00    -0.271 OA
HETATM   17  N1  BES   501      43.569  17.485 195.925  1.00  0.00    -0.344 N 
HETATM   18  H23 BES   501      42.677  18.071 196.014  1.00  0.00     0.163 HD
BRANCH  17  19
HETATM   19  C4  BES   501      44.271  17.509 194.642  1.00  0.00     0.185 C 
BRANCH  19  20
HETATM   20  C13 BES   501      43.369  16.925 193.550  1.00  0.00     0.040 C 
BRANCH  20  21
HETATM   21  C14 BES   501      44.037  15.736 192.888  1.00  0.00    -0.020 C 
HETATM   22  C15 BES   501      44.247  14.634 193.927  1.00  0.00     0.009 C 
HETATM   23  C16 BES   501      43.215  15.221 191.749  1.00  0.00     0.009 C 
ENDBRANCH  20  21
ENDBRANCH  19  20
BRANCH  19  24
HETATM   24  C5  BES   501      44.553  18.938 194.311  1.00  0.00     0.196 C 
HETATM   25  O1  BES   501      43.602  19.766 194.284  1.00  0.00    -0.646 OA
HETATM   26  O4  BES   501      45.767  19.262 194.117  1.00  0.00    -0.646 OA
ENDBRANCH  19  24
ENDBRANCH  17  19
ENDBRANCH  12  15
ENDBRANCH   4  12
ENDBRANCH   1   4
TORSDOF 10
ENDMDL
MODEL 4
REMARK VINA RESULT:    -1.860      7.190     11.083
REMARK INTER + INTRA:          -6.712
REMARK INTER:                  -3.607
REMARK INTRA:                  -3.105
REMARK UNBOUND:                -3.167
REMARK  7 active torsions:
REMARK  status: ('A' for Active; 'I' for Inactive)
REMARK    1  A    between atoms: N2_1  and  C1_2 
REMARK    2  A    between atoms: C1_2  and  C2_3 
REMARK    3  A    between atoms: C2_3  and  C3_4 
REMARK       I    between atoms: C3_4  and  N1_6 
REMARK    4  A    between atoms: N1_6  and  C4_7 
REMARK    5  A    between atoms: C4_7  and  C13_8 
REMARK    6  A    between atoms: C4_7  and  C5_10 
REMARK    7  A    between atoms: C13_8  and  C7_9 
ROOT
HETATM    1  N2  BES   501      45.806   9.842 196.444  1.00  0.00    -0.079 N 
HETATM    2  H1  BES   501      46.216   9.028 195.883  1.00  0.00     0.274 HD
HETATM    3  H2  BES   501      46.018  10.763 195.942  1.00  0.00     0.274 HD
HETATM    4  H1  BES   501      44.746   9.718 196.527  1.00  0.00     0.274 HD
ENDROOT
BRANCH   1   5
HETATM    5  C1  BES   501      46.407   9.864 197.792  1.00  0.00     0.238 C 
BRANCH   5   6
HETATM    6  C2  BES   501      45.555  10.563 198.807  1.00  0.00     0.123 C 
BRANCH   6   7
HETATM    7  C3  BES   501      44.150  10.654 198.285  1.00  0.00     0.199 C 
HETATM    8  O3  BES   501      43.430   9.697 198.458  1.00  0.00    -0.280 OA
HETATM    9  N1  BES   501      43.717  11.882 197.605  1.00  0.00    -0.248 NA
HETATM   10  H7  BES   501      44.396  12.013 196.788  1.00  0.00     0.131 HD
BRANCH   9  11
HETATM   11  C4  BES   501      42.383  12.093 197.044  1.00  0.00     0.169 C 
BRANCH  11  12
HETATM   12  C13 BES   501      41.925  13.527 197.331  1.00  0.00     0.089 C 
BRANCH  12  13
HETATM   13  C7  BES   501      40.534  13.527 197.992  1.00  0.00     0.031 A 
HETATM   14  C21 BES   501      39.376  12.565 197.665  1.00  0.00     0.143 A 
HETATM   15  N22 BES   501      38.183  12.933 198.566  1.00  0.00    -0.254 N 
HETATM   16  C23 BES   501      38.603  14.121 199.451  1.00  0.00     0.209 A 
HETATM   17  N24 BES   501      40.056  14.488 199.096  1.00  0.00    -0.348 N 
HETATM   18  C1  BES   501      40.875  15.604 199.725  1.00  0.00     0.157 C 
ENDBRANCH  12  13
ENDBRANCH  11  12
BRANCH  11  19
HETATM   19  C5  BES   501      42.485  11.914 195.565  1.00  0.00     0.192 C 
HETATM   20  O1  BES   501      41.465  12.103 194.846  1.00  0.00    -0.647 OA
HETATM   21  O4  BES   501      43.627  11.618 195.092  1.00  0.00    -0.647 OA
ENDBRANCH  11  19
ENDBRANCH   9  11
ENDBRANCH   6   7
ENDBRANCH   5   6
ENDBRANCH   1   5
TORSDOF 7
REMARK  10 active torsions:
REMARK  status: ('A' for Active; 'I' for Inactive)
REMARK    1  A    between atoms: N2_1  and  C1_2 
REMARK    2  A    between atoms: C1_2  and  C6_3 
REMARK    3  A    between atoms: C1_2  and  C2_10 
REMARK    4  A    between atoms: C6_3  and  C7_4 
REMARK    5  A    between atoms: C2_10  and  O2_11 
REMARK    6  A    between atoms: C2_10  and  C3_12 
REMARK       I    between atoms: C3_12  and  N1_14 
REMARK    7  A    between atoms: N1_14  and  C4_15 
REMARK    8  A    between atoms: C4_15  and  C13_16 
REMARK    9  A    between atoms: C4_15  and  C5_20 
REMARK   10  A    between atoms: C13_16  and  C14_17 
ROOT
HETATM    1  N2  BES   501      44.730  14.393 194.547  1.00  0.00    -0.423 N 
HETATM    2  H1  BES   501      44.643  14.993 193.665  1.00  0.00     0.150 HD
HETATM    3  H2  BES   501      44.521  13.344 194.503  1.00  0.00     0.150 HD
ENDROOT
BRANCH   1   4
HETATM    4  C1  BES   501      45.125  14.997 195.790  1.00  0.00     0.116 C 
BRANCH   4   5
HETATM    5  C6  BES   501      45.615  16.447 195.735  1.00  0.00     0.066 C 
BRANCH   5   6
HETATM    6  C7  BES   501      44.856  17.396 196.678  1.00  0.00    -0.056 A 
HETATM    7  C8  BES   501      43.493  17.193 196.987  1.00  0.00     0.007 A 
HETATM    8  C9  BES   501      42.824  18.079 197.860  1.00  0.00     0.001 A 
HETATM    9  C10 BES   501      43.509  19.149 198.430  1.00  0.00     0.000 A 
HETATM   10  C11 BES   501      44.869  19.346 198.126  1.00  0.00     0.001 A 
HETATM   11  C12 BES   501      45.539  18.461 197.254  1.00  0.00     0.007 A 
ENDBRANCH   5   6
ENDBRANCH   4   5
BRANCH   4  12
HETATM   12  C2  BES   501      46.268  14.179 196.306  1.00  0.00     0.232 C 
BRANCH  12  13
HETATM   13  O2  BES   501      45.978  12.856 196.108  1.00  0.00    -0.384 OA
HETATM   14  H12 BES   501      45.448  12.743 195.210  1.00  0.00     0.210 HD
ENDBRANCH  12  13
BRANCH  12  15
HETATM   15  C3  BES   501      46.443  14.451 197.772  1.00  0.00     0.249 C 
HETATM   16  O3  BES   501      47.561  14.709 198.161  1.00  0.00    -0.271 OA
HETATM   17  N1  BES   501      45.271  14.396 198.655  1.00  0.00    -0.344 N 
HETATM   18  H23 BES   501      44.323  14.171 198.212  1.00  0.00     0.163 HD
BRANCH  17  19
HETATM   19  C4  BES   501      45.307  14.629 200.098  1.00  0.00     0.185 C 
BRANCH  19  20
HETATM   20  C13 BES   501      44.575  15.934 200.428  1.00  0.00     0.040 C 
BRANCH  20  21
HETATM   21  C14 BES   501      45.432  16.817 201.311  1.00  0.00    -0.020 C 
HETATM   22  C15 BES   501      46.706  17.199 200.555  1.00  0.00     0.009 C 
HETATM   23  C16 BES   501      44.691  18.048 201.727  1.00  0.00     0.009 C 
ENDBRANCH  20  21
ENDBRANCH  19  20
BRANCH  19  24
HETATM   24  C5  BES   501      44.583  13.499 200.754  1.00  0.00     0.196 C 
HETATM   25  O1  BES   501      43.384  13.265 200.437  1.00  0.00    -0.646 OA
HETATM   26  O4  BES   501      45.238  12.787 201.578  1.00  0.00    -0.646 OA
ENDBRANCH  19  24
ENDBRANCH  17  19
ENDBRANCH  12  15
ENDBRANCH   4  12
ENDBRANCH   1   4
TORSDOF 10
ENDMDL
MODEL 5
REMARK VINA RESULT:    -1.857      3.792      7.867
REMARK INTER + INTRA:          -6.708
REMARK INTER:                  -3.765
REMARK INTRA:                  -2.942
REMARK UNBOUND:                -3.167
REMARK  7 active torsions:
REMARK  status: ('A' for Active; 'I' for Inactive)
REMARK    1  A    between atoms: N2_1  and  C1_2 
REMARK    2  A    between atoms: C1_2  and  C2_3 
REMARK    3  A    between atoms: C2_3  and  C3_4 
REMARK       I    between atoms: C3_4  and  N1_6 
REMARK    4  A    between atoms: N1_6  and  C4_7 
REMARK    5  A    between atoms: C4_7  and  C13_8 
REMARK    6  A    between atoms: C4_7  and  C5_10 
REMARK    7  A    between atoms: C13_8  and  C7_9 
ROOT
HETATM    1  N2  BES   501      40.867  14.050 192.316  1.00  0.00    -0.079 N 
HETATM    2  H1  BES   501      40.226  13.194 192.342  1.00  0.00     0.274 HD
HETATM    3  H2  BES   501      41.009  14.419 193.310  1.00  0.00     0.274 HD
HETATM    4  H1  BES   501      41.813  13.773 191.900  1.00  0.00     0.274 HD
ENDROOT
BRANCH   1   5
HETATM    5  C1  BES   501      40.251  15.102 191.483  1.00  0.00     0.238 C 
BRANCH   5   6
HETATM    6  C2  BES   501      38.860  15.455 191.911  1.00  0.00     0.123 C 
BRANCH   6   7
HETATM    7  C3  BES   501      38.232  14.259 192.565  1.00  0.00     0.199 C 
HETATM    8  O3  BES   501      38.048  13.280 191.876  1.00  0.00    -0.280 OA
HETATM    9  N1  BES   501      37.878  14.325 193.989  1.00  0.00    -0.248 NA
HETATM   10  H7  BES   501      37.211  15.158 194.082  1.00  0.00     0.131 HD
BRANCH   9  11
HETATM   11  C4  BES   501      37.252  13.237 194.741  1.00  0.00     0.169 C 
BRANCH  11  12
HETATM   12  C13 BES   501      37.291  13.557 196.238  1.00  0.00     0.089 C 
BRANCH  12  13
HETATM   13  C7  BES   501      36.831  12.340 197.062  1.00  0.00     0.031 A 
HETATM   14  C21 BES   501      37.651  11.063 197.327  1.00  0.00     0.143 A 
HETATM   15  N22 BES   501      36.797  10.120 198.193  1.00  0.00    -0.254 N 
HETATM   16  C23 BES   501      35.449  10.814 198.466  1.00  0.00     0.209 A 
HETATM   17  N24 BES   501      35.471  12.186 197.767  1.00  0.00    -0.348 N 
HETATM   18  C1  BES   501      34.346  13.209 197.771  1.00  0.00     0.157 C 
ENDBRANCH  12  13
ENDBRANCH  11  12
BRANCH  11  19
HETATM   19  C5  BES   501      35.825  13.156 194.308  1.00  0.00     0.192 C 
HETATM   20  O1  BES   501      35.351  12.045 193.943  1.00  0.00    -0.647 OA
HETATM   21  O4  BES   501      35.135  14.221 194.374  1.00  0.00    -0.647 OA
ENDBRANCH  11  19
ENDBRANCH   9  11
ENDBRANCH   6   7
ENDBRANCH   5   6
ENDBRANCH   1   5
TORSDOF 7
REMARK  10 active torsions:
REMARK  status: ('A' for Active; 'I' for Inactive)
REMARK    1  A    between atoms: N2_1  and  C1_2 
REMARK    2  A    between atoms: C1_2  and  C6_3 
REMARK    3  A    between atoms: C1_2  and  C2_10 
REMARK    4  A    between atoms: C6_3  and  C7_4 
REMARK    5  A    between atoms: C2_10  and  O2_11 
REMARK    6  A    between atoms: C2_10  and  C3_12 
REMARK       I    between atoms: C3_12  and  N1_14 
REMARK    7  A    between atoms: N1_14  and  C4_15 
REMARK    8  A    between atoms: C4_15  and  C13_16 
REMARK    9  A    between atoms: C4_15  and  C5_20 
REMARK   10  A    between atoms: C13_16  and  C14_17 
ROOT
HETATM    1  N2  BES   501      34.542  16.579 195.970  1.00  0.00    -0.423 N 
HETATM    2  H1  BES   501      34.248  15.551 195.993  1.00  0.00     0.150 HD
HETATM    3  H2  BES   501      33.863  17.321 195.603  1.00  0.00     0.150 HD
ENDROOT
BRANCH   1   4
HETATM    4  C1  BES   501      35.848  16.964 196.430  1.00  0.00     0.116 C 
BRANCH   4   5
HETATM    5  C6  BES   501      35.911  17.935 197.613  1.00  0.00     0.066 C 
BRANCH   5   6
HETATM    6  C7  BES   501      36.493  17.316 198.895  1.00  0.00    -0.056 A 
HETATM    7  C8  BES   501      36.852  18.116 200.003  1.00  0.00     0.007 A 
HETATM    8  C9  BES   501      37.380  17.518 201.168  1.00  0.00     0.001 A 
HETATM    9  C10 BES   501      37.537  16.137 201.235  1.00  0.00     0.000 A 
HETATM   10  C11 BES   501      37.173  15.340 200.134  1.00  0.00     0.001 A 
HETATM   11  C12 BES   501      36.645  15.936 198.968  1.00  0.00     0.007 A 
ENDBRANCH   5   6
ENDBRANCH   4   5
BRANCH   4  12
HETATM   12  C2  BES   501      36.511  17.653 195.277  1.00  0.00     0.232 C 
BRANCH  12  13
HETATM   13  O2  BES   501      36.334  16.887 194.156  1.00  0.00    -0.384 OA
HETATM   14  H12 BES   501      37.192  16.944 193.554  1.00  0.00     0.210 HD
ENDBRANCH  12  13
BRANCH  12  15
HETATM   15  C3  BES   501      37.975  17.800 195.571  1.00  0.00     0.249 C 
HETATM   16  O3  BES   501      38.467  18.895 195.414  1.00  0.00    -0.271 OA
HETATM   17  N1  BES   501      38.735  16.630 196.030  1.00  0.00    -0.344 N 
HETATM   18  H23 BES   501      38.205  15.707 196.149  1.00  0.00     0.163 HD
BRANCH  17  19
HETATM   19  C4  BES   501      40.164  16.637 196.338  1.00  0.00     0.185 C 
BRANCH  19  20
HETATM   20  C13 BES   501      40.397  16.008 197.716  1.00  0.00     0.040 C 
BRANCH  20  21
HETATM   21  C14 BES   501      40.233  17.046 198.808  1.00  0.00    -0.020 C 
HETATM   22  C15 BES   501      41.044  16.618 200.033  1.00  0.00     0.009 C 
HETATM   23  C16 BES   501      40.679  18.395 198.341  1.00  0.00     0.009 C 
ENDBRANCH  20  21
ENDBRANCH  19  20
BRANCH  19  24
HETATM   24  C5  BES   501      40.849  15.796 195.312  1.00  0.00     0.196 C 
HETATM   25  O1  BES   501      40.666  14.548 195.311  1.00  0.00    -0.646 OA
HETATM   26  O4  BES   501      41.557  16.398 194.444  1.00  0.00    -0.646 OA
ENDBRANCH  19  24
ENDBRANCH  17  19
ENDBRANCH  12  15
ENDBRANCH   4  12
ENDBRANCH   1   4
TORSDOF 10
ENDMDL
MODEL 6
REMARK VINA RESULT:    -1.839      6.757     10.786
REMARK INTER + INTRA:          -6.673
REMARK INTER:                  -3.572
REMARK INTRA:                  -3.100
REMARK UNBOUND:                -3.167
REMARK  7 active torsions:
REMARK  status: ('A' for Active; 'I' for Inactive)
REMARK    1  A    between atoms: N2_1  and  C1_2 
REMARK    2  A    between atoms: C1_2  and  C2_3 
REMARK    3  A    between atoms: C2_3  and  C3_4 
REMARK       I    between atoms: C3_4  and  N1_6 
REMARK    4  A    between atoms: N1_6  and  C4_7 
REMARK    5  A    between atoms: C4_7  and  C13_8 
REMARK    6  A    between atoms: C4_7  and  C5_10 
REMARK    7  A    between atoms: C13_8  and  C7_9 
ROOT
HETATM    1  N2  BES   501      41.552  21.090 194.843  1.00  0.00    -0.079 N 
HETATM    2  H1  BES   501      42.202  20.345 194.432  1.00  0.00     0.274 HD
HETATM    3  H2  BES   501      40.638  20.630 195.157  1.00  0.00     0.274 HD
HETATM    4  H1  BES   501      42.027  21.551 195.683  1.00  0.00     0.274 HD
ENDROOT
BRANCH   1   5
HETATM    5  C1  BES   501      41.263  22.111 193.817  1.00  0.00     0.238 C 
BRANCH   5   6
HETATM    6  C2  BES   501      39.805  22.229 193.495  1.00  0.00     0.123 C 
BRANCH   6   7
HETATM    7  C3  BES   501      39.090  21.016 194.016  1.00  0.00     0.199 C 
HETATM    8  O3  BES   501      39.102  20.023 193.324  1.00  0.00    -0.280 OA
HETATM    9  N1  BES   501      38.423  21.084 195.323  1.00  0.00    -0.248 NA
HETATM   10  H7  BES   501      37.722  21.890 195.247  1.00  0.00     0.131 HD
BRANCH   9  11
HETATM   11  C4  BES   501      37.686  19.980 195.938  1.00  0.00     0.169 C 
BRANCH  11  12
HETATM   12  C13 BES   501      38.603  19.222 196.903  1.00  0.00     0.089 C 
BRANCH  12  13
HETATM   13  C7  BES   501      38.932  17.823 196.349  1.00  0.00     0.031 A 
HETATM   14  C21 BES   501      40.186  17.441 195.540  1.00  0.00     0.143 A 
HETATM   15  N22 BES   501      40.092  15.943 195.197  1.00  0.00    -0.254 N 
HETATM   16  C23 BES   501      38.781  15.399 195.793  1.00  0.00     0.209 A 
HETATM   17  N24 BES   501      38.064  16.561 196.505  1.00  0.00    -0.348 N 
HETATM   18  C1  BES   501      36.732  16.477 197.234  1.00  0.00     0.157 C 
ENDBRANCH  12  13
ENDBRANCH  11  12
BRANCH  11  19
HETATM   19  C5  BES   501      36.559  20.573 196.719  1.00  0.00     0.192 C 
HETATM   20  O1  BES   501      35.535  19.875 196.956  1.00  0.00    -0.647 OA
HETATM   21  O4  BES   501      36.711  21.758 197.152  1.00  0.00    -0.647 OA
ENDBRANCH  11  19
ENDBRANCH   9  11
ENDBRANCH   6   7
ENDBRANCH   5   6
ENDBRANCH   1   5
TORSDOF 7
REMARK  10 active torsions:
REMARK  status: ('A' for Active; 'I' for Inactive)
REMARK    1  A    between atoms: N2_1  and  C1_2 
REMARK    2  A    between atoms: C1_2  and  C6_3 
REMARK    3  A    between atoms: C1_2  and  C2_10 
REMARK    4  A    between atoms: C6_3  and  C7_4 
REMARK    5  A    between atoms: C2_10  and  O2_11 
REMARK    6  A    between atoms: C2_10  and  C3_12 
REMARK       I    between atoms: C3_12  and  N1_14 
REMARK    7  A    between atoms: N1_14  and  C4_15 
REMARK    8  A    between atoms: C4_15  and  C13_16 
REMARK    9  A    between atoms: C4_15  and  C5_20 
REMARK   10  A    between atoms: C13_16  and  C14_17 
ROOT
HETATM    1  N2  BES   501      35.280  18.783 199.769  1.00  0.00    -0.423 N 
HETATM    2  H1  BES   501      35.293  17.866 199.219  1.00  0.00     0.150 HD
HETATM    3  H2  BES   501      34.356  19.300 199.927  1.00  0.00     0.150 HD
ENDROOT
BRANCH   1   4
HETATM    4  C1  BES   501      36.503  19.322 200.297  1.00  0.00     0.116 C 
BRANCH   4   5
HETATM    5  C6  BES   501      37.093  18.633 201.531  1.00  0.00     0.066 C 
BRANCH   5   6
HETATM    6  C7  BES   501      38.551  18.179 201.353  1.00  0.00    -0.056 A 
HETATM    7  C8  BES   501      39.480  18.247 202.415  1.00  0.00     0.007 A 
HETATM    8  C9  BES   501      40.812  17.818 202.222  1.00  0.00     0.001 A 
HETATM    9  C10 BES   501      41.212  17.315 200.987  1.00  0.00     0.000 A 
HETATM   10  C11 BES   501      40.284  17.241 199.932  1.00  0.00     0.001 A 
HETATM   11  C12 BES   501      38.952  17.669 200.123  1.00  0.00     0.007 A 
ENDBRANCH   5   6
ENDBRANCH   4   5
BRANCH   4  12
HETATM   12  C2  BES   501      36.199  20.732 200.701  1.00  0.00     0.232 C 
BRANCH  12  13
HETATM   13  O2  BES   501      35.358  21.277 199.768  1.00  0.00    -0.384 OA
HETATM   14  H12 BES   501      35.897  21.928 199.148  1.00  0.00     0.210 HD
ENDBRANCH  12  13
BRANCH  12  15
HETATM   15  C3  BES   501      37.479  21.514 200.754  1.00  0.00     0.249 C 
HETATM   16  O3  BES   501      37.651  22.235 201.711  1.00  0.00    -0.271 OA
HETATM   17  N1  BES   501      38.451  21.371 199.663  1.00  0.00    -0.344 N 
HETATM   18  H23 BES   501      38.211  20.698 198.866  1.00  0.00     0.163 HD
BRANCH  17  19
HETATM   19  C4  BES   501      39.727  22.082 199.589  1.00  0.00     0.185 C 
BRANCH  19  20
HETATM   20  C13 BES   501      40.881  21.074 199.620  1.00  0.00     0.040 C 
BRANCH  20  21
HETATM   21  C14 BES   501      41.896  21.461 200.676  1.00  0.00    -0.020 C 
HETATM   22  C15 BES   501      41.206  21.523 202.039  1.00  0.00     0.009 C 
HETATM   23  C16 BES   501      43.030  20.486 200.717  1.00  0.00     0.009 C 
ENDBRANCH  20  21
ENDBRANCH  19  20
BRANCH  19  24
HETATM   24  C5  BES   501      39.763  22.805 198.283  1.00  0.00     0.196 C 
HETATM   25  O1  BES   501      40.367  22.286 197.304  1.00  0.00    -0.646 OA
HETATM   26  O4  BES   501      39.130  23.905 198.208  1.00  0.00    -0.646 OA
ENDBRANCH  19  24
ENDBRANCH  17  19
ENDBRANCH  12  15
ENDBRANCH   4  12
ENDBRANCH   1   4
TORSDOF 10
ENDMDL
MODEL 7
REMARK VINA RESULT:    -1.831      4.163      8.229
REMARK INTER + INTRA:          -6.658
REMARK INTER:                  -3.555
REMARK INTRA:                  -3.103
REMARK UNBOUND:                -3.167
REMARK  7 active torsions:
REMARK  status: ('A' for Active; 'I' for Inactive)
REMARK    1  A    between atoms: N2_1  and  C1_2 
REMARK    2  A    between atoms: C1_2  and  C2_3 
REMARK    3  A    between atoms: C2_3  and  C3_4 
REMARK       I    between atoms: C3_4  and  N1_6 
REMARK    4  A    between atoms: N1_6  and  C4_7 
REMARK    5  A    between atoms: C4_7  and  C13_8 
REMARK    6  A    between atoms: C4_7  and  C5_10 
REMARK    7  A    between atoms: C13_8  and  C7_9 
ROOT
HETATM    1  N2  BES   501      37.764  16.633 194.621  1.00  0.00    -0.079 N 
HETATM    2  H1  BES   501      37.347  15.664 194.805  1.00  0.00     0.274 HD
HETATM    3  H2  BES   501      37.107  17.188 193.984  1.00  0.00     0.274 HD
HETATM    4  H1  BES   501      37.882  17.151 195.550  1.00  0.00     0.274 HD
ENDROOT
BRANCH   1   5
HETATM    5  C1  BES   501      39.079  16.488 193.967  1.00  0.00     0.238 C 
BRANCH   5   6
HETATM    6  C2  BES   501      39.581  15.076 193.956  1.00  0.00     0.123 C 
BRANCH   6   7
HETATM    7  C3  BES   501      38.532  14.181 194.551  1.00  0.00     0.199 C 
HETATM    8  O3  BES   501      37.759  13.646 193.789  1.00  0.00    -0.280 OA
HETATM    9  N1  BES   501      38.495  13.993 196.008  1.00  0.00    -0.248 NA
HETATM   10  H7  BES   501      38.385  14.974 196.423  1.00  0.00     0.131 HD
BRANCH   9  11
HETATM   11  C4  BES   501      37.522  13.158 196.712  1.00  0.00     0.169 C 
BRANCH  11  12
HETATM   12  C13 BES   501      38.171  12.554 197.962  1.00  0.00     0.089 C 
BRANCH  12  13
HETATM   13  C7  BES   501      38.182  11.017 197.874  1.00  0.00     0.031 A 
HETATM   14  C21 BES   501      37.847  10.178 196.626  1.00  0.00     0.143 A 
HETATM   15  N22 BES   501      37.987   8.692 197.000  1.00  0.00    -0.254 N 
HETATM   16  C23 BES   501      38.409   8.610 198.480  1.00  0.00     0.209 A 
HETATM   17  N24 BES   501      38.529  10.047 199.019  1.00  0.00    -0.348 N 
HETATM   18  C1  BES   501      38.922  10.440 200.435  1.00  0.00     0.157 C 
ENDBRANCH  12  13
ENDBRANCH  11  12
BRANCH  11  19
HETATM   19  C5  BES   501      36.398  14.044 197.140  1.00  0.00     0.192 C 
HETATM   20  O1  BES   501      35.290  13.531 197.455  1.00  0.00    -0.647 OA
HETATM   21  O4  BES   501      36.634  15.291 197.210  1.00  0.00    -0.647 OA
ENDBRANCH  11  19
ENDBRANCH   9  11
ENDBRANCH   6   7
ENDBRANCH   5   6
ENDBRANCH   1   5
TORSDOF 7
REMARK  10 active torsions:
REMARK  status: ('A' for Active; 'I' for Inactive)
REMARK    1  A    between atoms: N2_1  and  C1_2 
REMARK    2  A    between atoms: C1_2  and  C6_3 
REMARK    3  A    between atoms: C1_2  and  C2_10 
REMARK    4  A    between atoms: C6_3  and  C7_4 
REMARK    5  A    between atoms: C2_10  and  O2_11 
REMARK    6  A    between atoms: C2_10  and  C3_12 
REMARK       I    between atoms: C3_12  and  N1_14 
REMARK    7  A    between atoms: N1_14  and  C4_15 
REMARK    8  A    between atoms: C4_15  and  C13_16 
REMARK    9  A    between atoms: C4_15  and  C5_20 
REMARK   10  A    between atoms: C13_16  and  C14_17 
ROOT
HETATM    1  N2  BES   501      38.427  15.774 199.649  1.00  0.00    -0.423 N 
HETATM    2  H1  BES   501      38.071  15.635 200.648  1.00  0.00     0.150 HD
HETATM    3  H2  BES   501      37.753  16.087 198.879  1.00  0.00     0.150 HD
ENDROOT
BRANCH   1   4
HETATM    4  C1  BES   501      39.811  15.539 199.340  1.00  0.00     0.116 C 
BRANCH   4   5
HETATM    5  C6  BES   501      40.831  15.836 200.443  1.00  0.00     0.066 C 
BRANCH   5   6
HETATM    6  C7  BES   501      41.759  14.653 200.767  1.00  0.00    -0.056 A 
HETATM    7  C8  BES   501      41.339  13.316 200.587  1.00  0.00     0.007 A 
HETATM    8  C9  BES   501      42.216  12.250 200.888  1.00  0.00     0.001 A 
HETATM    9  C10 BES   501      43.501  12.513 201.352  1.00  0.00     0.000 A 
HETATM   10  C11 BES   501      43.921  13.845 201.524  1.00  0.00     0.001 A 
HETATM   11  C12 BES   501      43.046  14.912 201.223  1.00  0.00     0.007 A 
ENDBRANCH   5   6
ENDBRANCH   4   5
BRANCH   4  12
HETATM   12  C2  BES   501      40.143  16.447 198.196  1.00  0.00     0.232 C 
BRANCH  12  13
HETATM   13  O2  BES   501      39.070  16.484 197.346  1.00  0.00    -0.384 OA
HETATM   14  H12 BES   501      38.474  17.317 197.571  1.00  0.00     0.210 HD
ENDBRANCH  12  13
BRANCH  12  15
HETATM   15  C3  BES   501      41.347  15.910 197.478  1.00  0.00     0.249 C 
HETATM   16  O3  BES   501      42.235  16.691 197.217  1.00  0.00    -0.271 OA
HETATM   17  N1  BES   501      41.395  14.484 197.129  1.00  0.00    -0.344 N 
HETATM   18  H23 BES   501      40.564  13.873 197.414  1.00  0.00     0.163 HD
BRANCH  17  19
HETATM   19  C4  BES   501      42.501  13.840 196.421  1.00  0.00     0.185 C 
BRANCH  19  20
HETATM   20  C13 BES   501      43.408  13.123 197.427  1.00  0.00     0.040 C 
BRANCH  20  21
HETATM   21  C14 BES   501      44.589  13.999 197.796  1.00  0.00    -0.020 C 
HETATM   22  C15 BES   501      45.710  13.121 198.356  1.00  0.00     0.009 C 
HETATM   23  C16 BES   501      45.080  14.769 196.611  1.00  0.00     0.009 C 
ENDBRANCH  20  21
ENDBRANCH  19  20
BRANCH  19  24
HETATM   24  C5  BES   501      41.912  12.820 195.503  1.00  0.00     0.196 C 
HETATM   25  O1  BES   501      42.373  12.699 194.335  1.00  0.00    -0.646 OA
HETATM   26  O4  BES   501      40.992  12.077 195.970  1.00  0.00    -0.646 OA
ENDBRANCH  19  24
ENDBRANCH  17  19
ENDBRANCH  12  15
ENDBRANCH   4  12
ENDBRANCH   1   4
TORSDOF 10
ENDMDL
MODEL 8
REMARK VINA RESULT:    -1.828      4.397      6.782
REMARK INTER + INTRA:          -6.651
REMARK INTER:                  -3.536
REMARK INTRA:                  -3.115
REMARK UNBOUND:                -3.167
REMARK  7 active torsions:
REMARK  status: ('A' for Active; 'I' for Inactive)
REMARK    1  A    between atoms: N2_1  and  C1_2 
REMARK    2  A    between atoms: C1_2  and  C2_3 
REMARK    3  A    between atoms: C2_3  and  C3_4 
REMARK       I    between atoms: C3_4  and  N1_6 
REMARK    4  A    between atoms: N1_6  and  C4_7 
REMARK    5  A    between atoms: C4_7  and  C13_8 
REMARK    6  A    between atoms: C4_7  and  C5_10 
REMARK    7  A    between atoms: C13_8  and  C7_9 
ROOT
HETATM    1  N2  BES   501      37.959  18.491 195.792  1.00  0.00    -0.079 N 
HETATM    2  H1  BES   501      37.304  18.906 195.055  1.00  0.00     0.274 HD
HETATM    3  H2  BES   501      38.312  17.538 195.458  1.00  0.00     0.274 HD
HETATM    4  H1  BES   501      38.791  19.148 195.937  1.00  0.00     0.274 HD
ENDROOT
BRANCH   1   5
HETATM    5  C1  BES   501      37.230  18.329 197.065  1.00  0.00     0.238 C 
BRANCH   5   6
HETATM    6  C2  BES   501      38.061  17.710 198.146  1.00  0.00     0.123 C 
BRANCH   6   7
HETATM    7  C3  BES   501      39.501  17.717 197.720  1.00  0.00     0.199 C 
HETATM    8  O3  BES   501      40.144  18.716 197.949  1.00  0.00    -0.280 OA
HETATM    9  N1  BES   501      40.057  16.528 197.061  1.00  0.00    -0.248 NA
HETATM   10  H7  BES   501      39.445  16.364 196.198  1.00  0.00     0.131 HD
BRANCH   9  11
HETATM   11  C4  BES   501      41.437  16.410 196.589  1.00  0.00     0.169 C 
BRANCH  11  12
HETATM   12  C13 BES   501      42.033  15.083 197.068  1.00  0.00     0.089 C 
BRANCH  12  13
HETATM   13  C7  BES   501      43.138  15.333 198.112  1.00  0.00     0.031 A 
HETATM   14  C21 BES   501      42.980  15.228 199.640  1.00  0.00     0.143 A 
HETATM   15  N22 BES   501      44.338  15.562 200.283  1.00  0.00    -0.254 N 
HETATM   16  C23 BES   501      45.337  15.874 199.152  1.00  0.00     0.209 A 
HETATM   17  N24 BES   501      44.594  15.732 197.811  1.00  0.00    -0.348 N 
HETATM   18  C1  BES   501      45.194  15.948 196.430  1.00  0.00     0.157 C 
ENDBRANCH  12  13
ENDBRANCH  11  12
BRANCH  11  19
HETATM   19  C5  BES   501      41.402  16.405 195.096  1.00  0.00     0.192 C 
HETATM   20  O1  BES   501      40.507  17.060 194.495  1.00  0.00    -0.647 OA
HETATM   21  O4  BES   501      42.320  15.764 194.494  1.00  0.00    -0.647 OA
ENDBRANCH  11  19
ENDBRANCH   9  11
ENDBRANCH   6   7
ENDBRANCH   5   6
ENDBRANCH   1   5
TORSDOF 7
REMARK  10 active torsions:
REMARK  status: ('A' for Active; 'I' for Inactive)
REMARK    1  A    between atoms: N2_1  and  C1_2 
REMARK    2  A    between atoms: C1_2  and  C6_3 
REMARK    3  A    between atoms: C1_2  and  C2_10 
REMARK    4  A    between atoms: C6_3  and  C7_4 
REMARK    5  A    between atoms: C2_10  and  O2_11 
REMARK    6  A    between atoms: C2_10  and  C3_12 
REMARK       I    between atoms: C3_12  and  N1_14 
REMARK    7  A    between atoms: N1_14  and  C4_15 
REMARK    8  A    between atoms: C4_15  and  C13_16 
REMARK    9  A    between atoms: C4_15  and  C5_20 
REMARK   10  A    between atoms: C13_16  and  C14_17 
ROOT
HETATM    1  N2  BES   501      39.281  14.624 192.928  1.00  0.00    -0.423 N 
HETATM    2  H1  BES   501      38.913  14.306 191.975  1.00  0.00     0.150 HD
HETATM    3  H2  BES   501      39.799  15.556 193.018  1.00  0.00     0.150 HD
ENDROOT
BRANCH   1   4
HETATM    4  C1  BES   501      39.078  13.800 194.088  1.00  0.00     0.116 C 
BRANCH   4   5
HETATM    5  C6  BES   501      38.886  12.299 193.850  1.00  0.00     0.066 C 
BRANCH   5   6
HETATM    6  C7  BES   501      39.997  11.425 194.457  1.00  0.00    -0.056 A 
HETATM    7  C8  BES   501      39.944  10.015 194.392  1.00  0.00     0.007 A 
HETATM    8  C9  BES   501      40.983   9.240 194.953  1.00  0.00     0.001 A 
HETATM    9  C10 BES   501      42.068   9.862 195.562  1.00  0.00     0.000 A 
HETATM   10  C11 BES   501      42.123  11.267 195.620  1.00  0.00     0.001 A 
HETATM   11  C12 BES   501      41.086  12.044 195.059  1.00  0.00     0.007 A 
ENDBRANCH   5   6
ENDBRANCH   4   5
BRANCH   4  12
HETATM   12  C2  BES   501      37.823  14.293 194.738  1.00  0.00     0.232 C 
BRANCH  12  13
HETATM   13  O2  BES   501      37.931  15.647 194.916  1.00  0.00    -0.384 OA
HETATM   14  H12 BES   501      37.037  16.111 194.625  1.00  0.00     0.210 HD
ENDBRANCH  12  13
BRANCH  12  15
HETATM   15  C3  BES   501      37.658  13.613 196.066  1.00  0.00     0.249 C 
HETATM   16  O3  BES   501      36.628  13.006 196.257  1.00  0.00    -0.271 OA
HETATM   17  N1  BES   501      38.736  13.712 197.059  1.00  0.00    -0.344 N 
HETATM   18  H23 BES   501      39.613  14.263 196.789  1.00  0.00     0.163 HD
BRANCH  17  19
HETATM   19  C4  BES   501      38.696  13.107 198.390  1.00  0.00     0.185 C 
BRANCH  19  20
HETATM   20  C13 BES   501      40.024  12.395 198.672  1.00  0.00     0.040 C 
BRANCH  20  21
HETATM   21  C14 BES   501      39.784  10.937 199.005  1.00  0.00    -0.020 C 
HETATM   22  C15 BES   501      38.897  10.313 197.926  1.00  0.00     0.009 C 
HETATM   23  C16 BES   501      41.075  10.188 199.107  1.00  0.00     0.009 C 
ENDBRANCH  20  21
ENDBRANCH  19  20
BRANCH  19  24
HETATM   24  C5  BES   501      38.531  14.213 199.380  1.00  0.00     0.196 C 
HETATM   25  O1  BES   501      39.542  14.871 199.748  1.00  0.00    -0.646 OA
HETATM   26  O4  BES   501      37.350  14.471 199.773  1.00  0.00    -0.646 OA
ENDBRANCH  19  24
ENDBRANCH  17  19
ENDBRANCH  12  15
ENDBRANCH   4  12
ENDBRANCH   1   4
TORSDOF 10
ENDMDL
MODEL 9
REMARK VINA RESULT:    -1.815      6.208     10.204
REMARK INTER + INTRA:          -6.628
REMARK INTER:                  -4.053
REMARK INTRA:                  -2.575
REMARK UNBOUND:                -3.167
REMARK  7 active torsions:
REMARK  status: ('A' for Active; 'I' for Inactive)
REMARK    1  A    between atoms: N2_1  and  C1_2 
REMARK    2  A    between atoms: C1_2  and  C2_3 
REMARK    3  A    between atoms: C2_3  and  C3_4 
REMARK       I    between atoms: C3_4  and  N1_6 
REMARK    4  A    between atoms: N1_6  and  C4_7 
REMARK    5  A    between atoms: C4_7  and  C13_8 
REMARK    6  A    between atoms: C4_7  and  C5_10 
REMARK    7  A    between atoms: C13_8  and  C7_9 
ROOT
HETATM    1  N2  BES   501      39.857  21.434 194.476  1.00  0.00    -0.079 N 
HETATM    2  H1  BES   501      40.109  20.534 193.954  1.00  0.00     0.274 HD
HETATM    3  H2  BES   501      39.055  21.237 195.157  1.00  0.00     0.274 HD
HETATM    4  H1  BES   501      40.711  21.779 195.021  1.00  0.00     0.274 HD
ENDROOT
BRANCH   1   5
HETATM    5  C1  BES   501      39.440  22.466 193.508  1.00  0.00     0.238 C 
BRANCH   5   6
HETATM    6  C2  BES   501      37.956  22.666 193.460  1.00  0.00     0.123 C 
BRANCH   6   7
HETATM    7  C3  BES   501      37.280  21.433 193.986  1.00  0.00     0.199 C 
HETATM    8  O3  BES   501      37.129  20.511 193.217  1.00  0.00    -0.280 OA
HETATM    9  N1  BES   501      36.844  21.398 195.388  1.00  0.00    -0.248 NA
HETATM   10  H7  BES   501      36.180  22.230 195.504  1.00  0.00     0.131 HD
BRANCH   9  11
HETATM   11  C4  BES   501      36.166  20.266 196.019  1.00  0.00     0.169 C 
BRANCH  11  12
HETATM   12  C13 BES   501      37.204  19.334 196.653  1.00  0.00     0.089 C 
BRANCH  12  13
HETATM   13  C7  BES   501      37.296  18.013 195.867  1.00  0.00     0.031 A 
HETATM   14  C21 BES   501      38.412  17.623 194.879  1.00  0.00     0.143 A 
HETATM   15  N22 BES   501      38.093  16.220 194.331  1.00  0.00    -0.254 N 
HETATM   16  C23 BES   501      36.780  15.742 194.980  1.00  0.00     0.209 A 
HETATM   17  N24 BES   501      36.288  16.851 195.928  1.00  0.00    -0.348 N 
HETATM   18  C1  BES   501      35.027  16.805 196.777  1.00  0.00     0.157 C 
ENDBRANCH  12  13
ENDBRANCH  11  12
BRANCH  11  19
HETATM   19  C5  BES   501      35.292  20.811 197.100  1.00  0.00     0.192 C 
HETATM   20  O1  BES   501      34.221  20.212 197.392  1.00  0.00    -0.647 OA
HETATM   21  O4  BES   501      35.702  21.847 197.713  1.00  0.00    -0.647 OA
ENDBRANCH  11  19
ENDBRANCH   9  11
ENDBRANCH   6   7
ENDBRANCH   5   6
ENDBRANCH   1   5
TORSDOF 7
REMARK  10 active torsions:
REMARK  status: ('A' for Active; 'I' for Inactive)
REMARK    1  A    between atoms: N2_1  and  C1_2 
REMARK    2  A    between atoms: C1_2  and  C6_3 
REMARK    3  A    between atoms: C1_2  and  C2_10 
REMARK    4  A    between atoms: C6_3  and  C7_4 
REMARK    5  A    between atoms: C2_10  and  O2_11 
REMARK    6  A    between atoms: C2_10  and  C3_12 
REMARK       I    between atoms: C3_12  and  N1_14 
REMARK    7  A    between atoms: N1_14  and  C4_15 
REMARK    8  A    between atoms: C4_15  and  C13_16 
REMARK    9  A    between atoms: C4_15  and  C5_20 
REMARK   10  A    between atoms: C13_16  and  C14_17 
ROOT
HETATM    1  N2  BES   501      34.907  18.707 200.027  1.00  0.00    -0.423 N 
HETATM    2  H1  BES   501      34.565  17.974 199.327  1.00  0.00     0.150 HD
HETATM    3  H2  BES   501      34.205  19.215 200.655  1.00  0.00     0.150 HD
ENDROOT
BRANCH   1   4
HETATM    4  C1  BES   501      36.309  19.010 200.124  1.00  0.00     0.116 C 
BRANCH   4   5
HETATM    5  C6  BES   501      37.210  17.944 200.755  1.00  0.00     0.066 C 
BRANCH   5   6
HETATM    6  C7  BES   501      38.103  17.207 199.743  1.00  0.00    -0.056 A 
HETATM    7  C8  BES   501      37.724  15.962 199.194  1.00  0.00     0.007 A 
HETATM    8  C9  BES   501      38.564  15.312 198.264  1.00  0.00     0.001 A 
HETATM    9  C10 BES   501      39.763  15.901 197.873  1.00  0.00     0.000 A 
HETATM   10  C11 BES   501      40.136  17.144 198.415  1.00  0.00     0.001 A 
HETATM   11  C12 BES   501      39.298  17.796 199.346  1.00  0.00     0.007 A 
ENDBRANCH   5   6
ENDBRANCH   4   5
BRANCH   4  12
HETATM   12  C2  BES   501      36.414  20.226 200.993  1.00  0.00     0.232 C 
BRANCH  12  13
HETATM   13  O2  BES   501      35.390  21.076 200.673  1.00  0.00    -0.384 OA
HETATM   14  H12 BES   501      35.782  21.962 200.272  1.00  0.00     0.210 HD
ENDBRANCH  12  13
BRANCH  12  15
HETATM   15  C3  BES   501      37.733  20.896 200.740  1.00  0.00     0.249 C 
HETATM   16  O3  BES   501      38.466  21.061 201.689  1.00  0.00    -0.271 OA
HETATM   17  N1  BES   501      38.073  21.315 199.373  1.00  0.00    -0.344 N 
HETATM   18  H23 BES   501      37.362  21.113 198.599  1.00  0.00     0.163 HD
BRANCH  17  19
HETATM   19  C4  BES   501      39.317  21.985 198.995  1.00  0.00     0.185 C 
BRANCH  19  20
HETATM   20  C13 BES   501      40.167  21.045 198.134  1.00  0.00     0.040 C 
BRANCH  20  21
HETATM   21  C14 BES   501      41.600  21.024 198.627  1.00  0.00    -0.020 C 
HETATM   22  C15 BES   501      41.619  20.614 200.100  1.00  0.00     0.009 C 
HETATM   23  C16 BES   501      42.435  20.082 197.819  1.00  0.00     0.009 C 
ENDBRANCH  20  21
ENDBRANCH  19  20
BRANCH  19  24
HETATM   24  C5  BES   501      38.951  23.179 198.176  1.00  0.00     0.196 C 
HETATM   25  O1  BES   501      38.811  24.298 198.741  1.00  0.00    -0.646 OA
HETATM   26  O4  BES   501      38.846  23.013 196.920  1.00  0.00    -0.646 OA
ENDBRANCH  19  24
ENDBRANCH  17  19
ENDBRANCH  12  15
ENDBRANCH   4  12
ENDBRANCH   1   4
TORSDOF 10
ENDMDL
