MODEL 1
REMARK VINA RESULT:    -1.895      0.000      0.000
REMARK INTER + INTRA:          -6.734
REMARK INTER:                  -3.613
REMARK INTRA:                  -3.121
REMARK UNBOUND:                -3.121
REMARK  10 active torsions:
REMARK  status: ('A' for Active; 'I' for Inactive)
REMARK    1  A    between atoms: N2_1  and  C1_2 
REMARK    2  A    between atoms: C1_2  and  C6_3 
REMARK    3  A    between atoms: C1_2  and  C2_10 
REMARK    4  A    between atoms: C6_3  and  C7_4 
REMARK    5  A    between atoms: C2_10  and  O2_11 
REMARK    6  A    between atoms: C2_10  and  C3_12 
REMARK       I    between atoms: C3_12  and  N1_14 
REMARK    7  A    between atoms: N1_14  and  C4_15 
REMARK    8  A    between atoms: C4_15  and  C13_16 
REMARK    9  A    between atoms: C4_15  and  C5_20 
REMARK   10  A    between atoms: C13_16  and  C14_17 
ROOT
HETATM    1  N2  BES   501      41.792  16.440 193.517  1.00  0.00    -0.423 N 
HETATM    2  H1  BES   501      42.173  15.801 192.747  1.00  0.00     0.150 HD
HETATM    3  H2  BES   501      41.588  16.043 194.490  1.00  0.00     0.150 HD
ENDROOT
BRANCH   1   4
HETATM    4  C1  BES   501      41.553  17.831 193.244  1.00  0.00     0.116 C 
BRANCH   4   5
HETATM    5  C6  BES   501      41.335  18.226 191.780  1.00  0.00     0.066 C 
BRANCH   5   6
HETATM    6  C7  BES   501      39.970  18.881 191.510  1.00  0.00    -0.056 A 
HETATM    7  C8  BES   501      39.693  19.529 190.285  1.00  0.00     0.007 A 
HETATM    8  C9  BES   501      38.428  20.117 190.065  1.00  0.00     0.001 A 
HETATM    9  C10 BES   501      37.445  20.051 191.048  1.00  0.00     0.000 A 
HETATM   10  C11 BES   501      37.720  19.400 192.264  1.00  0.00     0.001 A 
HETATM   11  C12 BES   501      38.984  18.811 192.487  1.00  0.00     0.007 A 
ENDBRANCH   5   6
ENDBRANCH   4   5
BRANCH   4  12
HETATM   12  C2  BES   501      42.776  18.563 193.705  1.00  0.00     0.232 C 
BRANCH  12  13
HETATM   13  O2  BES   501      43.151  18.055 194.920  1.00  0.00    -0.384 OA
HETATM   14  H12 BES   501      43.861  18.690 195.360  1.00  0.00     0.210 HD
ENDBRANCH  12  13
BRANCH  12  15
HETATM   15  C3  BES   501      42.452  20.022 193.838  1.00  0.00     0.249 C 
HETATM   16  O3  BES   501      43.176  20.808 193.268  1.00  0.00    -0.271 OA
HETATM   17  N1  BES   501      41.290  20.428 194.640  1.00  0.00    -0.344 N 
HETATM   18  H23 BES   501      40.704  19.655 195.095  1.00  0.00     0.163 HD
BRANCH  17  19
HETATM   19  C4  BES   501      40.873  21.812 194.858  1.00  0.00     0.185 C 
BRANCH  19  20
HETATM   20  C13 BES   501      39.413  21.985 194.427  1.00  0.00     0.040 C 
BRANCH  20  21
HETATM   21  C14 BES   501      39.295  23.058 193.364  1.00  0.00    -0.020 C 
HETATM   22  C15 BES   501      40.186  22.689 192.177  1.00  0.00     0.009 C 
HETATM   23  C16 BES   501      37.877  23.219 192.914  1.00  0.00     0.009 C 
ENDBRANCH  20  21
ENDBRANCH  19  20
BRANCH  19  24
HETATM   24  C5  BES   501      40.971  22.085 196.322  1.00  0.00     0.196 C 
HETATM   25  O1  BES   501      40.148  21.544 197.110  1.00  0.00    -0.646 OA
HETATM   26  O4  BES   501      41.929  22.825 196.714  1.00  0.00    -0.646 OA
ENDBRANCH  19  24
ENDBRANCH  17  19
ENDBRANCH  12  15
ENDBRANCH   4  12
ENDBRANCH   1   4
TORSDOF 10
REMARK  7 active torsions:
REMARK  status: ('A' for Active; 'I' for Inactive)
REMARK    1  A    between atoms: N2_1  and  C1_2 
REMARK    2  A    between atoms: C1_2  and  C2_3 
REMARK    3  A    between atoms: C2_3  and  C3_4 
REMARK       I    between atoms: C3_4  and  N1_6 
REMARK    4  A    between atoms: N1_6  and  C4_7 
REMARK    5  A    between atoms: C4_7  and  C13_8 
REMARK    6  A    between atoms: C4_7  and  C5_10 
REMARK    7  A    between atoms: C13_8  and  C7_9 
ROOT
HETATM    1  N2  BES   501      44.183  17.798 197.754  1.00  0.00    -0.079 N 
HETATM    2  H12 BES   501      44.922  17.450 197.063  1.00  0.00     0.274 HD
HETATM    3  H13 BES   501      43.210  17.670 197.328  1.00  0.00     0.274 HD
HETATM    4  H2  BES   501      44.250  17.236 198.662  1.00  0.00     0.274 HD
ENDROOT
BRANCH   1   5
HETATM    5  C1  BES   501      44.403  19.190 198.034  1.00  0.00     0.238 C 
BRANCH   5   6
HETATM    6  C2  BES   501      43.101  19.878 198.383  1.00  0.00     0.123 C 
BRANCH   6   7
HETATM    7  C3  BES   501      41.965  18.872 198.398  1.00  0.00     0.199 C 
HETATM    8  O3  BES   501      41.619  18.321 199.437  1.00  0.00    -0.280 OA
HETATM    9  N1  BES   501      41.311  18.541 197.127  1.00  0.00    -0.248 NA
HETATM   10  H7  BES   501      42.073  18.161 196.478  1.00  0.00     0.131 HD
BRANCH   9  11
HETATM   11  C4  BES   501      40.201  17.567 197.094  1.00  0.00     0.169 C 
BRANCH  11  12
HETATM   12  C13 BES   501      39.147  17.983 196.066  1.00  0.00     0.091 C 
BRANCH  12  13
HETATM   13  C7  BES   501      38.074  18.862 196.735  1.00  0.00     0.053 A 
HETATM   14  C14 BES   501      37.862  19.034 198.251  1.00  0.00     0.116 A 
HETATM   15  N15 BES   501      36.682  20.001 198.460  1.00  0.00    -0.359 N 
HETATM   16  C16 BES   501      36.165  20.427 197.072  1.00  0.00     0.207 A 
HETATM   17  H13 BES   501      36.290  20.322 199.402  1.00  0.00     0.166 HD
HETATM   18  N17 BES   501      37.025  19.723 196.007  1.00  0.00    -0.247 N 
ENDBRANCH  12  13
ENDBRANCH  11  12
BRANCH  11  19
HETATM   19  C5  BES   501      40.714  16.150 196.890  1.00  0.00     0.192 C 
HETATM   20  O1  BES   501      39.949  15.167 197.077  1.00  0.00    -0.647 OA
HETATM   21  O4  BES   501      41.901  15.948 196.518  1.00  0.00    -0.647 OA
ENDBRANCH  11  19
ENDBRANCH   9  11
ENDBRANCH   6   7
ENDBRANCH   5   6
ENDBRANCH   1   5
TORSDOF 7
ENDMDL
MODEL 2
REMARK VINA RESULT:    -1.875      6.700      9.899
REMARK INTER + INTRA:          -6.694
REMARK INTER:                  -3.553
REMARK INTRA:                  -3.140
REMARK UNBOUND:                -3.121
REMARK  10 active torsions:
REMARK  status: ('A' for Active; 'I' for Inactive)
REMARK    1  A    between atoms: N2_1  and  C1_2 
REMARK    2  A    between atoms: C1_2  and  C6_3 
REMARK    3  A    between atoms: C1_2  and  C2_10 
REMARK    4  A    between atoms: C6_3  and  C7_4 
REMARK    5  A    between atoms: C2_10  and  O2_11 
REMARK    6  A    between atoms: C2_10  and  C3_12 
REMARK       I    between atoms: C3_12  and  N1_14 
REMARK    7  A    between atoms: N1_14  and  C4_15 
REMARK    8  A    between atoms: C4_15  and  C13_16 
REMARK    9  A    between atoms: C4_15  and  C5_20 
REMARK   10  A    between atoms: C13_16  and  C14_17 
ROOT
HETATM    1  N2  BES   501      33.525  14.666 193.884  1.00  0.00    -0.423 N 
HETATM    2  H1  BES   501      33.946  15.523 194.367  1.00  0.00     0.150 HD
HETATM    3  H2  BES   501      33.015  14.775 192.950  1.00  0.00     0.150 HD
ENDROOT
BRANCH   1   4
HETATM    4  C1  BES   501      33.642  13.368 194.491  1.00  0.00     0.116 C 
BRANCH   4   5
HETATM    5  C6  BES   501      33.442  12.153 193.581  1.00  0.00     0.066 C 
BRANCH   5   6
HETATM    6  C7  BES   501      34.708  11.299 193.397  1.00  0.00    -0.056 A 
HETATM    7  C8  BES   501      34.633   9.943 193.008  1.00  0.00     0.007 A 
HETATM    8  C9  BES   501      35.813   9.186 192.842  1.00  0.00     0.001 A 
HETATM    9  C10 BES   501      37.057   9.776 193.048  1.00  0.00     0.000 A 
HETATM   10  C11 BES   501      37.131  11.128 193.429  1.00  0.00     0.001 A 
HETATM   11  C12 BES   501      35.952  11.887 193.595  1.00  0.00     0.007 A 
ENDBRANCH   5   6
ENDBRANCH   4   5
BRANCH   4  12
HETATM   12  C2  BES   501      32.573  13.298 195.538  1.00  0.00     0.232 C 
BRANCH  12  13
HETATM   13  O2  BES   501      32.474  14.525 196.138  1.00  0.00    -0.384 OA
HETATM   14  H12 BES   501      33.315  15.103 195.895  1.00  0.00     0.210 HD
ENDBRANCH  12  13
BRANCH  12  15
HETATM   15  C3  BES   501      32.949  12.260 196.554  1.00  0.00     0.249 C 
HETATM   16  O3  BES   501      32.091  11.477 196.895  1.00  0.00    -0.271 OA
HETATM   17  N1  BES   501      34.320  12.238 197.082  1.00  0.00    -0.344 N 
HETATM   18  H23 BES   501      35.010  12.966 196.708  1.00  0.00     0.163 HD
BRANCH  17  19
HETATM   19  C4  BES   501      34.810  11.289 198.080  1.00  0.00     0.185 C 
BRANCH  19  20
HETATM   20  C13 BES   501      36.122  10.662 197.595  1.00  0.00     0.040 C 
BRANCH  20  21
HETATM   21  C14 BES   501      35.846   9.569 196.582  1.00  0.00    -0.020 C 
HETATM   22  C15 BES   501      37.049   8.627 196.520  1.00  0.00     0.009 C 
HETATM   23  C16 BES   501      34.610   8.804 196.937  1.00  0.00     0.009 C 
ENDBRANCH  20  21
ENDBRANCH  19  20
BRANCH  19  24
HETATM   24  C5  BES   501      35.085  12.056 199.332  1.00  0.00     0.196 C 
HETATM   25  O1  BES   501      36.276  12.200 199.720  1.00  0.00    -0.646 OA
HETATM   26  O4  BES   501      34.089  12.576 199.927  1.00  0.00    -0.646 OA
ENDBRANCH  19  24
ENDBRANCH  17  19
ENDBRANCH  12  15
ENDBRANCH   4  12
ENDBRANCH   1   4
TORSDOF 10
REMARK  7 active torsions:
REMARK  status: ('A' for Active; 'I' for Inactive)
REMARK    1  A    between atoms: N2_1  and  C1_2 
REMARK    2  A    between atoms: C1_2  and  C2_3 
REMARK    3  A    between atoms: C2_3  and  C3_4 
REMARK       I    between atoms: C3_4  and  N1_6 
REMARK    4  A    between atoms: N1_6  and  C4_7 
REMARK    5  A    between atoms: C4_7  and  C13_8 
REMARK    6  A    between atoms: C4_7  and  C5_10 
REMARK    7  A    between atoms: C13_8  and  C7_9 
ROOT
HETATM    1  N2  BES   501      35.741  15.139 200.897  1.00  0.00    -0.079 N 
HETATM    2  H12 BES   501      35.636  16.160 200.597  1.00  0.00     0.274 HD
HETATM    3  H13 BES   501      34.887  14.848 201.472  1.00  0.00     0.274 HD
HETATM    4  H2  BES   501      35.815  14.518 200.029  1.00  0.00     0.274 HD
ENDROOT
BRANCH   1   5
HETATM    5  C1  BES   501      36.928  14.992 201.695  1.00  0.00     0.238 C 
BRANCH   5   6
HETATM    6  C2  BES   501      38.167  15.067 200.829  1.00  0.00     0.123 C 
BRANCH   6   7
HETATM    7  C3  BES   501      37.812  15.593 199.451  1.00  0.00     0.199 C 
HETATM    8  O3  BES   501      37.892  16.787 199.187  1.00  0.00    -0.280 OA
HETATM    9  N1  BES   501      37.326  14.641 198.446  1.00  0.00    -0.248 NA
HETATM   10  H7  BES   501      36.451  14.181 198.854  1.00  0.00     0.131 HD
BRANCH   9  11
HETATM   11  C4  BES   501      36.968  15.108 197.091  1.00  0.00     0.169 C 
BRANCH  11  12
HETATM   12  C13 BES   501      37.351  14.064 196.039  1.00  0.00     0.091 C 
BRANCH  12  13
HETATM   13  C7  BES   501      38.824  13.653 196.214  1.00  0.00     0.053 A 
HETATM   14  C14 BES   501      39.342  12.222 196.456  1.00  0.00     0.116 A 
HETATM   15  N15 BES   501      40.876  12.283 196.570  1.00  0.00    -0.359 N 
HETATM   16  C16 BES   501      41.307  13.753 196.399  1.00  0.00     0.207 A 
HETATM   17  H13 BES   501      41.529  11.452 196.738  1.00  0.00     0.166 HD
HETATM   18  N17 BES   501      40.039  14.598 196.179  1.00  0.00    -0.247 N 
ENDBRANCH  12  13
ENDBRANCH  11  12
BRANCH  11  19
HETATM   19  C5  BES   501      35.509  15.529 197.018  1.00  0.00     0.192 C 
HETATM   20  O1  BES   501      34.714  15.223 197.946  1.00  0.00    -0.647 OA
HETATM   21  O4  BES   501      35.086  16.199 196.037  1.00  0.00    -0.647 OA
ENDBRANCH  11  19
ENDBRANCH   9  11
ENDBRANCH   6   7
ENDBRANCH   5   6
ENDBRANCH   1   5
TORSDOF 7
ENDMDL
MODEL 3
REMARK VINA RESULT:    -1.852      4.900      8.224
REMARK INTER + INTRA:          -6.651
REMARK INTER:                  -3.674
REMARK INTRA:                  -2.977
REMARK UNBOUND:                -3.121
REMARK  10 active torsions:
REMARK  status: ('A' for Active; 'I' for Inactive)
REMARK    1  A    between atoms: N2_1  and  C1_2 
REMARK    2  A    between atoms: C1_2  and  C6_3 
REMARK    3  A    between atoms: C1_2  and  C2_10 
REMARK    4  A    between atoms: C6_3  and  C7_4 
REMARK    5  A    between atoms: C2_10  and  O2_11 
REMARK    6  A    between atoms: C2_10  and  C3_12 
REMARK       I    between atoms: C3_12  and  N1_14 
REMARK    7  A    between atoms: N1_14  and  C4_15 
REMARK    8  A    between atoms: C4_15  and  C13_16 
REMARK    9  A    between atoms: C4_15  and  C5_20 
REMARK   10  A    between atoms: C13_16  and  C14_17 
ROOT
HETATM    1  N2  BES   501      40.513  20.658 198.942  1.00  0.00    -0.423 N 
HETATM    2  H1  BES   501      40.816  21.169 198.052  1.00  0.00     0.150 HD
HETATM    3  H2  BES   501      39.898  21.158 199.661  1.00  0.00     0.150 HD
ENDROOT
BRANCH   1   4
HETATM    4  C1  BES   501      40.931  19.303 199.171  1.00  0.00     0.116 C 
BRANCH   4   5
HETATM    5  C6  BES   501      40.626  18.284 198.070  1.00  0.00     0.066 C 
BRANCH   5   6
HETATM    6  C7  BES   501      41.813  18.006 197.132  1.00  0.00    -0.056 A 
HETATM    7  C8  BES   501      42.814  18.976 196.903  1.00  0.00     0.007 A 
HETATM    8  C9  BES   501      43.895  18.690 196.040  1.00  0.00     0.001 A 
HETATM    9  C10 BES   501      43.985  17.447 195.422  1.00  0.00     0.000 A 
HETATM   10  C11 BES   501      42.991  16.479 195.656  1.00  0.00     0.001 A 
HETATM   11  C12 BES   501      41.910  16.763 196.518  1.00  0.00     0.007 A 
ENDBRANCH   5   6
ENDBRANCH   4   5
BRANCH   4  12
HETATM   12  C2  BES   501      40.200  18.841 200.394  1.00  0.00     0.232 C 
BRANCH  12  13
HETATM   13  O2  BES   501      40.061  19.907 201.243  1.00  0.00    -0.384 OA
HETATM   14  H12 BES   501      39.044  20.140 201.349  1.00  0.00     0.210 HD
ENDBRANCH  12  13
BRANCH  12  15
HETATM   15  C3  BES   501      40.995  17.756 201.060  1.00  0.00     0.249 C 
HETATM   16  O3  BES   501      40.400  16.757 201.398  1.00  0.00    -0.271 OA
HETATM   17  N1  BES   501      42.436  17.949 201.268  1.00  0.00    -0.344 N 
HETATM   18  H23 BES   501      42.871  18.864 200.922  1.00  0.00     0.163 HD
BRANCH  17  19
HETATM   19  C4  BES   501      43.320  16.978 201.912  1.00  0.00     0.185 C 
BRANCH  19  20
HETATM   20  C13 BES   501      44.587  16.797 201.070  1.00  0.00     0.040 C 
BRANCH  20  21
HETATM   21  C14 BES   501      44.232  16.605 199.610  1.00  0.00    -0.020 C 
HETATM   22  C15 BES   501      45.481  16.828 198.755  1.00  0.00     0.009 C 
HETATM   23  C16 BES   501      43.678  15.237 199.365  1.00  0.00     0.009 C 
ENDBRANCH  20  21
ENDBRANCH  19  20
BRANCH  19  24
HETATM   24  C5  BES   501      43.708  17.538 203.241  1.00  0.00     0.196 C 
HETATM   25  O1  BES   501      42.815  17.772 204.100  1.00  0.00    -0.646 OA
HETATM   26  O4  BES   501      44.949  17.707 203.461  1.00  0.00    -0.646 OA
ENDBRANCH  19  24
ENDBRANCH  17  19
ENDBRANCH  12  15
ENDBRANCH   4  12
ENDBRANCH   1   4
TORSDOF 10
REMARK  7 active torsions:
REMARK  status: ('A' for Active; 'I' for Inactive)
REMARK    1  A    between atoms: N2_1  and  C1_2 
REMARK    2  A    between atoms: C1_2  and  C2_3 
REMARK    3  A    between atoms: C2_3  and  C3_4 
REMARK       I    between atoms: C3_4  and  N1_6 
REMARK    4  A    between atoms: N1_6  and  C4_7 
REMARK    5  A    between atoms: C4_7  and  C13_8 
REMARK    6  A    between atoms: C4_7  and  C5_10 
REMARK    7  A    between atoms: C13_8  and  C7_9 
ROOT
HETATM    1  N2  BES   501      44.379  20.400 205.131  1.00  0.00    -0.079 N 
HETATM    2  H12 BES   501      43.970  19.412 205.089  1.00  0.00     0.274 HD
HETATM    3  H13 BES   501      44.329  20.846 204.160  1.00  0.00     0.274 HD
HETATM    4  H2  BES   501      43.816  20.990 205.823  1.00  0.00     0.274 HD
ENDROOT
BRANCH   1   5
HETATM    5  C1  BES   501      45.750  20.335 205.557  1.00  0.00     0.238 C 
BRANCH   5   6
HETATM    6  C2  BES   501      46.683  20.665 204.413  1.00  0.00     0.123 C 
BRANCH   6   7
HETATM    7  C3  BES   501      45.918  21.352 203.296  1.00  0.00     0.199 C 
HETATM    8  O3  BES   501      45.812  22.572 203.257  1.00  0.00    -0.280 OA
HETATM    9  N1  BES   501      45.270  20.517 202.279  1.00  0.00    -0.248 NA
HETATM   10  H7  BES   501      44.585  19.877 202.796  1.00  0.00     0.131 HD
BRANCH   9  11
HETATM   11  C4  BES   501      44.515  21.142 201.174  1.00  0.00     0.169 C 
BRANCH  11  12
HETATM   12  C13 BES   501      44.711  20.360 199.874  1.00  0.00     0.091 C 
BRANCH  12  13
HETATM   13  C7  BES   501      45.731  21.079 198.973  1.00  0.00     0.053 A 
HETATM   14  C14 BES   501      46.164  22.553 199.093  1.00  0.00     0.116 A 
HETATM   15  N15 BES   501      47.198  22.838 197.988  1.00  0.00    -0.359 N 
HETATM   16  C16 BES   501      47.405  21.539 197.185  1.00  0.00     0.207 A 
HETATM   17  H13 BES   501      47.687  23.773 197.809  1.00  0.00     0.166 HD
HETATM   18  N17 BES   501      46.499  20.454 197.794  1.00  0.00    -0.247 N 
ENDBRANCH  12  13
ENDBRANCH  11  12
BRANCH  11  19
HETATM   19  C5  BES   501      43.053  21.338 201.543  1.00  0.00     0.192 C 
HETATM   20  O1  BES   501      42.574  20.766 202.559  1.00  0.00    -0.647 OA
HETATM   21  O4  BES   501      42.313  22.084 200.847  1.00  0.00    -0.647 OA
ENDBRANCH  11  19
ENDBRANCH   9  11
ENDBRANCH   6   7
ENDBRANCH   5   6
ENDBRANCH   1   5
TORSDOF 7
ENDMDL
MODEL 4
REMARK VINA RESULT:    -1.841      4.899      8.304
REMARK INTER + INTRA:          -6.630
REMARK INTER:                  -3.545
REMARK INTRA:                  -3.085
REMARK UNBOUND:                -3.121
REMARK  10 active torsions:
REMARK  status: ('A' for Active; 'I' for Inactive)
REMARK    1  A    between atoms: N2_1  and  C1_2 
REMARK    2  A    between atoms: C1_2  and  C6_3 
REMARK    3  A    between atoms: C1_2  and  C2_10 
REMARK    4  A    between atoms: C6_3  and  C7_4 
REMARK    5  A    between atoms: C2_10  and  O2_11 
REMARK    6  A    between atoms: C2_10  and  C3_12 
REMARK       I    between atoms: C3_12  and  N1_14 
REMARK    7  A    between atoms: N1_14  and  C4_15 
REMARK    8  A    between atoms: C4_15  and  C13_16 
REMARK    9  A    between atoms: C4_15  and  C5_20 
REMARK   10  A    between atoms: C13_16  and  C14_17 
ROOT
HETATM    1  N2  BES   501      38.834  19.065 199.300  1.00  0.00    -0.423 N 
HETATM    2  H1  BES   501      38.002  19.607 199.700  1.00  0.00     0.150 HD
HETATM    3  H2  BES   501      39.396  19.472 198.486  1.00  0.00     0.150 HD
ENDROOT
BRANCH   1   4
HETATM    4  C1  BES   501      39.194  17.790 199.856  1.00  0.00     0.116 C 
BRANCH   4   5
HETATM    5  C6  BES   501      38.170  16.658 199.726  1.00  0.00     0.066 C 
BRANCH   5   6
HETATM    6  C7  BES   501      38.688  15.436 198.951  1.00  0.00    -0.056 A 
HETATM    7  C8  BES   501      39.808  15.526 198.094  1.00  0.00     0.007 A 
HETATM    8  C9  BES   501      40.264  14.384 197.400  1.00  0.00     0.001 A 
HETATM    9  C10 BES   501      39.619  13.162 197.566  1.00  0.00     0.000 A 
HETATM   10  C11 BES   501      38.509  13.071 198.424  1.00  0.00     0.001 A 
HETATM   11  C12 BES   501      38.051  14.212 199.120  1.00  0.00     0.007 A 
ENDBRANCH   5   6
ENDBRANCH   4   5
BRANCH   4  12
HETATM   12  C2  BES   501      39.396  18.016 201.323  1.00  0.00     0.232 C 
BRANCH  12  13
HETATM   13  O2  BES   501      40.112  19.171 201.488  1.00  0.00    -0.384 OA
HETATM   14  H12 BES   501      40.389  19.270 202.495  1.00  0.00     0.210 HD
ENDBRANCH  12  13
BRANCH  12  15
HETATM   15  C3  BES   501      40.156  16.856 201.897  1.00  0.00     0.249 C 
HETATM   16  O3  BES   501      39.708  16.334 202.894  1.00  0.00    -0.271 OA
HETATM   17  N1  BES   501      41.390  16.410 201.236  1.00  0.00    -0.344 N 
HETATM   18  H23 BES   501      41.697  16.930 200.351  1.00  0.00     0.163 HD
BRANCH  17  19
HETATM   19  C4  BES   501      42.227  15.304 201.698  1.00  0.00     0.185 C 
BRANCH  19  20
HETATM   20  C13 BES   501      42.097  14.121 200.733  1.00  0.00     0.040 C 
BRANCH  20  21
HETATM   21  C14 BES   501      41.035  13.154 201.218  1.00  0.00    -0.020 C 
HETATM   22  C15 BES   501      41.281  11.781 200.591  1.00  0.00     0.009 C 
HETATM   23  C16 BES   501      41.043  13.048 202.711  1.00  0.00     0.009 C 
ENDBRANCH  20  21
ENDBRANCH  19  20
BRANCH  19  24
HETATM   24  C5  BES   501      43.644  15.776 201.681  1.00  0.00     0.196 C 
HETATM   25  O1  BES   501      44.134  16.225 200.608  1.00  0.00    -0.646 OA
HETATM   26  O4  BES   501      44.281  15.747 202.780  1.00  0.00    -0.646 OA
ENDBRANCH  19  24
ENDBRANCH  17  19
ENDBRANCH  12  15
ENDBRANCH   4  12
ENDBRANCH   1   4
TORSDOF 10
REMARK  7 active torsions:
REMARK  status: ('A' for Active; 'I' for Inactive)
REMARK    1  A    between atoms: N2_1  and  C1_2 
REMARK    2  A    between atoms: C1_2  and  C2_3 
REMARK    3  A    between atoms: C2_3  and  C3_4 
REMARK       I    between atoms: C3_4  and  N1_6 
REMARK    4  A    between atoms: N1_6  and  C4_7 
REMARK    5  A    between atoms: C4_7  and  C13_8 
REMARK    6  A    between atoms: C4_7  and  C5_10 
REMARK    7  A    between atoms: C13_8  and  C7_9 
ROOT
HETATM    1  N2  BES   501      42.116  21.091 202.595  1.00  0.00    -0.079 N 
HETATM    2  H12 BES   501      42.634  22.024 202.523  1.00  0.00     0.274 HD
HETATM    3  H13 BES   501      41.113  21.267 202.925  1.00  0.00     0.274 HD
HETATM    4  H2  BES   501      42.097  20.617 201.636  1.00  0.00     0.274 HD
ENDROOT
BRANCH   1   5
HETATM    5  C1  BES   501      42.787  20.239 203.539  1.00  0.00     0.238 C 
BRANCH   5   6
HETATM    6  C2  BES   501      43.741  19.303 202.830  1.00  0.00     0.123 C 
BRANCH   6   7
HETATM    7  C3  BES   501      43.807  19.643 201.352  1.00  0.00     0.199 C 
HETATM    8  O3  BES   501      44.647  20.421 200.917  1.00  0.00    -0.280 OA
HETATM    9  N1  BES   501      42.810  19.047 200.455  1.00  0.00    -0.248 NA
HETATM   10  H7  BES   501      41.850  19.350 200.816  1.00  0.00     0.131 HD
BRANCH   9  11
HETATM   11  C4  BES   501      42.836  19.349 199.010  1.00  0.00     0.169 C 
BRANCH  11  12
HETATM   12  C13 BES   501      42.393  18.133 198.194  1.00  0.00     0.091 C 
BRANCH  12  13
HETATM   13  C7  BES   501      43.572  17.596 197.362  1.00  0.00     0.053 A 
HETATM   14  C14 BES   501      44.653  18.448 196.669  1.00  0.00     0.116 A 
HETATM   15  N15 BES   501      45.626  17.494 195.954  1.00  0.00    -0.359 N 
HETATM   16  C16 BES   501      45.148  16.051 196.206  1.00  0.00     0.207 A 
HETATM   17  H13 BES   501      46.485  17.781 195.384  1.00  0.00     0.166 HD
HETATM   18  N17 BES   501      43.879  16.115 197.075  1.00  0.00    -0.247 N 
ENDBRANCH  12  13
ENDBRANCH  11  12
BRANCH  11  19
HETATM   19  C5  BES   501      42.043  20.607 198.693  1.00  0.00     0.192 C 
HETATM   20  O1  BES   501      41.174  21.028 199.501  1.00  0.00    -0.647 OA
HETATM   21  O4  BES   501      42.258  21.247 197.628  1.00  0.00    -0.647 OA
ENDBRANCH  11  19
ENDBRANCH   9  11
ENDBRANCH   6   7
ENDBRANCH   5   6
ENDBRANCH   1   5
TORSDOF 7
ENDMDL
MODEL 5
REMARK VINA RESULT:    -1.833      4.511      6.090
REMARK INTER + INTRA:          -6.615
REMARK INTER:                  -3.464
REMARK INTRA:                  -3.151
REMARK UNBOUND:                -3.121
REMARK  10 active torsions:
REMARK  status: ('A' for Active; 'I' for Inactive)
REMARK    1  A    between atoms: N2_1  and  C1_2 
REMARK    2  A    between atoms: C1_2  and  C6_3 
REMARK    3  A    between atoms: C1_2  and  C2_10 
REMARK    4  A    between atoms: C6_3  and  C7_4 
REMARK    5  A    between atoms: C2_10  and  O2_11 
REMARK    6  A    between atoms: C2_10  and  C3_12 
REMARK       I    between atoms: C3_12  and  N1_14 
REMARK    7  A    between atoms: N1_14  and  C4_15 
REMARK    8  A    between atoms: C4_15  and  C13_16 
REMARK    9  A    between atoms: C4_15  and  C5_20 
REMARK   10  A    between atoms: C13_16  and  C14_17 
ROOT
HETATM    1  N2  BES   501      42.093  11.315 193.166  1.00  0.00    -0.423 N 
HETATM    2  H1  BES   501      43.103  11.409 192.825  1.00  0.00     0.150 HD
HETATM    3  H2  BES   501      41.790  10.441 193.706  1.00  0.00     0.150 HD
ENDROOT
BRANCH   1   4
HETATM    4  C1  BES   501      41.144  12.360 192.899  1.00  0.00     0.116 C 
BRANCH   4   5
HETATM    5  C6  BES   501      40.085  12.082 191.828  1.00  0.00     0.066 C 
BRANCH   5   6
HETATM    6  C7  BES   501      38.650  12.003 192.377  1.00  0.00    -0.056 A 
HETATM    7  C8  BES   501      37.529  12.044 191.519  1.00  0.00     0.007 A 
HETATM    8  C9  BES   501      36.224  11.963 192.053  1.00  0.00     0.001 A 
HETATM    9  C10 BES   501      36.037  11.832 193.426  1.00  0.00     0.000 A 
HETATM   10  C11 BES   501      37.155  11.784 194.279  1.00  0.00     0.001 A 
HETATM   11  C12 BES   501      38.461  11.864 193.747  1.00  0.00     0.007 A 
ENDBRANCH   5   6
ENDBRANCH   4   5
BRANCH   4  12
HETATM   12  C2  BES   501      41.939  13.534 192.418  1.00  0.00     0.232 C 
BRANCH  12  13
HETATM   13  O2  BES   501      43.026  13.686 193.237  1.00  0.00    -0.384 OA
HETATM   14  H12 BES   501      42.716  13.650 194.239  1.00  0.00     0.210 HD
ENDBRANCH  12  13
BRANCH  12  15
HETATM   15  C3  BES   501      41.081  14.764 192.473  1.00  0.00     0.249 C 
HETATM   16  O3  BES   501      41.032  15.455 191.480  1.00  0.00    -0.271 OA
HETATM   17  N1  BES   501      40.348  15.070 193.708  1.00  0.00    -0.344 N 
HETATM   18  H23 BES   501      40.447  14.390 194.529  1.00  0.00     0.163 HD
BRANCH  17  19
HETATM   19  C4  BES   501      39.489  16.239 193.896  1.00  0.00     0.185 C 
BRANCH  19  20
HETATM   20  C13 BES   501      38.105  15.789 194.377  1.00  0.00     0.040 C 
BRANCH  20  21
HETATM   21  C14 BES   501      37.237  15.390 193.201  1.00  0.00    -0.020 C 
HETATM   22  C15 BES   501      35.765  15.515 193.598  1.00  0.00     0.009 C 
HETATM   23  C16 BES   501      37.522  16.243 192.006  1.00  0.00     0.009 C 
ENDBRANCH  20  21
ENDBRANCH  19  20
BRANCH  19  24
HETATM   24  C5  BES   501      40.109  17.085 194.959  1.00  0.00     0.196 C 
HETATM   25  O1  BES   501      40.072  16.699 196.159  1.00  0.00    -0.646 OA
HETATM   26  O4  BES   501      40.696  18.149 194.586  1.00  0.00    -0.646 OA
ENDBRANCH  19  24
ENDBRANCH  17  19
ENDBRANCH  12  15
ENDBRANCH   4  12
ENDBRANCH   1   4
TORSDOF 10
REMARK  7 active torsions:
REMARK  status: ('A' for Active; 'I' for Inactive)
REMARK    1  A    between atoms: N2_1  and  C1_2 
REMARK    2  A    between atoms: C1_2  and  C2_3 
REMARK    3  A    between atoms: C2_3  and  C3_4 
REMARK       I    between atoms: C3_4  and  N1_6 
REMARK    4  A    between atoms: N1_6  and  C4_7 
REMARK    5  A    between atoms: C4_7  and  C13_8 
REMARK    6  A    between atoms: C4_7  and  C5_10 
REMARK    7  A    between atoms: C13_8  and  C7_9 
ROOT
HETATM    1  N2  BES   501      45.162  14.833 194.967  1.00  0.00    -0.079 N 
HETATM    2  H12 BES   501      45.534  14.496 194.022  1.00  0.00     0.274 HD
HETATM    3  H13 BES   501      44.254  14.314 195.197  1.00  0.00     0.274 HD
HETATM    4  H2  BES   501      45.887  14.634 195.727  1.00  0.00     0.274 HD
ENDROOT
BRANCH   1   5
HETATM    5  C1  BES   501      44.903  16.245 194.907  1.00  0.00     0.238 C 
BRANCH   5   6
HETATM    6  C2  BES   501      43.754  16.618 195.818  1.00  0.00     0.123 C 
BRANCH   6   7
HETATM    7  C3  BES   501      43.301  15.407 196.612  1.00  0.00     0.199 C 
HETATM    8  O3  BES   501      43.761  15.168 197.723  1.00  0.00    -0.280 OA
HETATM    9  N1  BES   501      42.324  14.498 196.001  1.00  0.00    -0.248 NA
HETATM   10  H7  BES   501      42.759  14.145 195.090  1.00  0.00     0.131 HD
BRANCH   9  11
HETATM   11  C4  BES   501      41.856  13.306 196.738  1.00  0.00     0.169 C 
BRANCH  11  12
HETATM   12  C13 BES   501      40.334  13.177 196.647  1.00  0.00     0.091 C 
BRANCH  12  13
HETATM   13  C7  BES   501      39.707  13.314 198.046  1.00  0.00     0.053 A 
HETATM   14  C14 BES   501      39.767  12.263 199.171  1.00  0.00     0.116 A 
HETATM   15  N15 BES   501      39.007  12.823 200.387  1.00  0.00    -0.359 N 
HETATM   16  C16 BES   501      38.478  14.221 200.015  1.00  0.00     0.207 A 
HETATM   17  H13 BES   501      38.871  12.329 201.327  1.00  0.00     0.166 HD
HETATM   18  N17 BES   501      38.910  14.523 198.568  1.00  0.00    -0.247 N 
ENDBRANCH  12  13
ENDBRANCH  11  12
BRANCH  11  19
HETATM   19  C5  BES   501      42.593  12.054 196.291  1.00  0.00     0.192 C 
HETATM   20  O1  BES   501      42.071  10.919 196.454  1.00  0.00    -0.647 OA
HETATM   21  O4  BES   501      43.724  12.141 195.741  1.00  0.00    -0.647 OA
ENDBRANCH  11  19
ENDBRANCH   9  11
ENDBRANCH   6   7
ENDBRANCH   5   6
ENDBRANCH   1   5
TORSDOF 7
ENDMDL
MODEL 6
REMARK VINA RESULT:    -1.829      6.926     10.393
REMARK INTER + INTRA:          -6.606
REMARK INTER:                  -3.597
REMARK INTRA:                  -3.009
REMARK UNBOUND:                -3.121
REMARK  10 active torsions:
REMARK  status: ('A' for Active; 'I' for Inactive)
REMARK    1  A    between atoms: N2_1  and  C1_2 
REMARK    2  A    between atoms: C1_2  and  C6_3 
REMARK    3  A    between atoms: C1_2  and  C2_10 
REMARK    4  A    between atoms: C6_3  and  C7_4 
REMARK    5  A    between atoms: C2_10  and  O2_11 
REMARK    6  A    between atoms: C2_10  and  C3_12 
REMARK       I    between atoms: C3_12  and  N1_14 
REMARK    7  A    between atoms: N1_14  and  C4_15 
REMARK    8  A    between atoms: C4_15  and  C13_16 
REMARK    9  A    between atoms: C4_15  and  C5_20 
REMARK   10  A    between atoms: C13_16  and  C14_17 
ROOT
HETATM    1  N2  BES   501      36.404  18.062 197.766  1.00  0.00    -0.423 N 
HETATM    2  H1  BES   501      36.262  18.906 198.408  1.00  0.00     0.150 HD
HETATM    3  H2  BES   501      36.700  18.209 196.748  1.00  0.00     0.150 HD
ENDROOT
BRANCH   1   4
HETATM    4  C1  BES   501      36.198  16.732 198.270  1.00  0.00     0.116 C 
BRANCH   4   5
HETATM    5  C6  BES   501      37.330  15.723 198.057  1.00  0.00     0.066 C 
BRANCH   5   6
HETATM    6  C7  BES   501      38.187  15.478 199.310  1.00  0.00    -0.056 A 
HETATM    7  C8  BES   501      38.508  16.526 200.201  1.00  0.00     0.007 A 
HETATM    8  C9  BES   501      39.294  16.268 201.346  1.00  0.00     0.001 A 
HETATM    9  C10 BES   501      39.745  14.978 201.608  1.00  0.00     0.000 A 
HETATM   10  C11 BES   501      39.419  13.933 200.724  1.00  0.00     0.001 A 
HETATM   11  C12 BES   501      38.633  14.189 199.579  1.00  0.00     0.007 A 
ENDBRANCH   5   6
ENDBRANCH   4   5
BRANCH   4  12
HETATM   12  C2  BES   501      35.003  16.192 197.545  1.00  0.00     0.232 C 
BRANCH  12  13
HETATM   13  O2  BES   501      34.182  17.240 197.224  1.00  0.00    -0.384 OA
HETATM   14  H12 BES   501      33.752  17.628 198.098  1.00  0.00     0.210 HD
ENDBRANCH  12  13
BRANCH  12  15
HETATM   15  C3  BES   501      34.280  15.230 198.441  1.00  0.00     0.249 C 
HETATM   16  O3  BES   501      33.833  14.225 197.935  1.00  0.00    -0.271 OA
HETATM   17  N1  BES   501      34.147  15.544 199.870  1.00  0.00    -0.344 N 
HETATM   18  H23 BES   501      34.588  16.454 200.224  1.00  0.00     0.163 HD
BRANCH  17  19
HETATM   19  C4  BES   501      33.459  14.700 200.846  1.00  0.00     0.185 C 
BRANCH  19  20
HETATM   20  C13 BES   501      34.191  14.765 202.190  1.00  0.00     0.040 C 
BRANCH  20  21
HETATM   21  C14 BES   501      35.671  14.499 202.003  1.00  0.00    -0.020 C 
HETATM   22  C15 BES   501      36.427  14.967 203.248  1.00  0.00     0.009 C 
HETATM   23  C16 BES   501      35.932  13.046 201.759  1.00  0.00     0.009 C 
ENDBRANCH  20  21
ENDBRANCH  19  20
BRANCH  19  24
HETATM   24  C5  BES   501      32.084  15.253 201.027  1.00  0.00     0.196 C 
HETATM   25  O1  BES   501      31.189  14.978 200.181  1.00  0.00    -0.646 OA
HETATM   26  O4  BES   501      31.868  15.947 202.070  1.00  0.00    -0.646 OA
ENDBRANCH  19  24
ENDBRANCH  17  19
ENDBRANCH  12  15
ENDBRANCH   4  12
ENDBRANCH   1   4
TORSDOF 10
REMARK  7 active torsions:
REMARK  status: ('A' for Active; 'I' for Inactive)
REMARK    1  A    between atoms: N2_1  and  C1_2 
REMARK    2  A    between atoms: C1_2  and  C2_3 
REMARK    3  A    between atoms: C2_3  and  C3_4 
REMARK       I    between atoms: C3_4  and  N1_6 
REMARK    4  A    between atoms: N1_6  and  C4_7 
REMARK    5  A    between atoms: C4_7  and  C13_8 
REMARK    6  A    between atoms: C4_7  and  C5_10 
REMARK    7  A    between atoms: C13_8  and  C7_9 
ROOT
HETATM    1  N2  BES   501      30.246  18.510 201.716  1.00  0.00    -0.079 N 
HETATM    2  H12 BES   501      29.927  17.558 201.349  1.00  0.00     0.274 HD
HETATM    3  H13 BES   501      31.301  18.612 201.570  1.00  0.00     0.274 HD
HETATM    4  H2  BES   501      29.737  19.286 201.184  1.00  0.00     0.274 HD
ENDROOT
BRANCH   1   5
HETATM    5  C1  BES   501      29.945  18.611 203.118  1.00  0.00     0.238 C 
BRANCH   5   6
HETATM    6  C2  BES   501      31.160  19.070 203.894  1.00  0.00     0.123 C 
BRANCH   6   7
HETATM    7  C3  BES   501      32.220  19.596 202.945  1.00  0.00     0.199 C 
HETATM    8  O3  BES   501      32.272  20.782 202.644  1.00  0.00    -0.280 OA
HETATM    9  N1  BES   501      33.165  18.639 202.358  1.00  0.00    -0.248 NA
HETATM   10  H7  BES   501      32.582  17.916 201.827  1.00  0.00     0.131 HD
BRANCH   9  11
HETATM   11  C4  BES   501      34.214  19.105 201.428  1.00  0.00     0.169 C 
BRANCH  11  12
HETATM   12  C13 BES   501      35.524  18.352 201.669  1.00  0.00     0.091 C 
BRANCH  12  13
HETATM   13  C7  BES   501      36.363  19.077 202.737  1.00  0.00     0.053 A 
HETATM   14  C14 BES   501      36.216  20.554 203.153  1.00  0.00     0.116 A 
HETATM   15  N15 BES   501      37.257  20.845 204.250  1.00  0.00    -0.359 N 
HETATM   16  C16 BES   501      38.047  19.548 204.512  1.00  0.00     0.207 A 
HETATM   17  H13 BES   501      37.406  21.782 204.744  1.00  0.00     0.166 HD
HETATM   18  N17 BES   501      37.493  18.457 203.578  1.00  0.00    -0.247 N 
ENDBRANCH  12  13
ENDBRANCH  11  12
BRANCH  11  19
HETATM   19  C5  BES   501      33.742  19.043 199.984  1.00  0.00     0.192 C 
HETATM   20  O1  BES   501      34.349  19.690 199.090  1.00  0.00    -0.647 OA
HETATM   21  O4  BES   501      32.750  18.332 199.667  1.00  0.00    -0.647 OA
ENDBRANCH  11  19
ENDBRANCH   9  11
ENDBRANCH   6   7
ENDBRANCH   5   6
ENDBRANCH   1   5
TORSDOF 7
ENDMDL
MODEL 7
REMARK VINA RESULT:    -1.828      2.270      6.245
REMARK INTER + INTRA:          -6.605
REMARK INTER:                  -3.450
REMARK INTRA:                  -3.155
REMARK UNBOUND:                -3.121
REMARK  10 active torsions:
REMARK  status: ('A' for Active; 'I' for Inactive)
REMARK    1  A    between atoms: N2_1  and  C1_2 
REMARK    2  A    between atoms: C1_2  and  C6_3 
REMARK    3  A    between atoms: C1_2  and  C2_10 
REMARK    4  A    between atoms: C6_3  and  C7_4 
REMARK    5  A    between atoms: C2_10  and  O2_11 
REMARK    6  A    between atoms: C2_10  and  C3_12 
REMARK       I    between atoms: C3_12  and  N1_14 
REMARK    7  A    between atoms: N1_14  and  C4_15 
REMARK    8  A    between atoms: C4_15  and  C13_16 
REMARK    9  A    between atoms: C4_15  and  C5_20 
REMARK   10  A    between atoms: C13_16  and  C14_17 
ROOT
HETATM    1  N2  BES   501      42.010  19.662 200.118  1.00  0.00    -0.423 N 
HETATM    2  H1  BES   501      41.278  20.426 200.284  1.00  0.00     0.150 HD
HETATM    3  H2  BES   501      42.972  19.733 200.582  1.00  0.00     0.150 HD
ENDROOT
BRANCH   1   4
HETATM    4  C1  BES   501      41.701  18.543 199.272  1.00  0.00     0.116 C 
BRANCH   4   5
HETATM    5  C6  BES   501      41.489  17.189 199.958  1.00  0.00     0.066 C 
BRANCH   5   6
HETATM    6  C7  BES   501      40.151  16.517 199.605  1.00  0.00    -0.056 A 
HETATM    7  C8  BES   501      39.990  15.115 199.675  1.00  0.00     0.007 A 
HETATM    8  C9  BES   501      38.748  14.526 199.350  1.00  0.00     0.001 A 
HETATM    9  C10 BES   501      37.674  15.326 198.972  1.00  0.00     0.000 A 
HETATM   10  C11 BES   501      37.833  16.723 198.910  1.00  0.00     0.001 A 
HETATM   11  C12 BES   501      39.074  17.313 199.234  1.00  0.00     0.007 A 
ENDBRANCH   5   6
ENDBRANCH   4   5
BRANCH   4  12
HETATM   12  C2  BES   501      42.872  18.377 198.354  1.00  0.00     0.232 C 
BRANCH  12  13
HETATM   13  O2  BES   501      43.376  19.617 198.068  1.00  0.00    -0.384 OA
HETATM   14  H12 BES   501      44.401  19.640 198.293  1.00  0.00     0.210 HD
ENDBRANCH  12  13
BRANCH  12  15
HETATM   15  C3  BES   501      42.415  17.706 197.092  1.00  0.00     0.249 C 
HETATM   16  O3  BES   501      43.098  16.804 196.661  1.00  0.00    -0.271 OA
HETATM   17  N1  BES   501      41.178  18.165 196.445  1.00  0.00    -0.344 N 
HETATM   18  H23 BES   501      40.638  18.963 196.912  1.00  0.00     0.163 HD
BRANCH  17  19
HETATM   19  C4  BES   501      40.630  17.606 195.210  1.00  0.00     0.185 C 
BRANCH  19  20
HETATM   20  C13 BES   501      39.222  17.062 195.471  1.00  0.00     0.040 C 
BRANCH  20  21
HETATM   21  C14 BES   501      39.138  15.598 195.090  1.00  0.00    -0.020 C 
HETATM   22  C15 BES   501      40.146  14.803 195.922  1.00  0.00     0.009 C 
HETATM   23  C16 BES   501      37.758  15.062 195.304  1.00  0.00     0.009 C 
ENDBRANCH  20  21
ENDBRANCH  19  20
BRANCH  19  24
HETATM   24  C5  BES   501      40.533  18.718 194.218  1.00  0.00     0.196 C 
HETATM   25  O1  BES   501      39.405  19.217 193.956  1.00  0.00    -0.646 OA
HETATM   26  O4  BES   501      41.619  19.147 193.716  1.00  0.00    -0.646 OA
ENDBRANCH  19  24
ENDBRANCH  17  19
ENDBRANCH  12  15
ENDBRANCH   4  12
ENDBRANCH   1   4
TORSDOF 10
REMARK  7 active torsions:
REMARK  status: ('A' for Active; 'I' for Inactive)
REMARK    1  A    between atoms: N2_1  and  C1_2 
REMARK    2  A    between atoms: C1_2  and  C2_3 
REMARK    3  A    between atoms: C2_3  and  C3_4 
REMARK       I    between atoms: C3_4  and  N1_6 
REMARK    4  A    between atoms: N1_6  and  C4_7 
REMARK    5  A    between atoms: C4_7  and  C13_8 
REMARK    6  A    between atoms: C4_7  and  C5_10 
REMARK    7  A    between atoms: C13_8  and  C7_9 
ROOT
HETATM    1  N2  BES   501      40.683  22.148 193.388  1.00  0.00    -0.079 N 
HETATM    2  H12 BES   501      41.547  22.237 192.764  1.00  0.00     0.274 HD
HETATM    3  H13 BES   501      40.656  21.171 193.822  1.00  0.00     0.274 HD
HETATM    4  H2  BES   501      40.726  22.882 194.165  1.00  0.00     0.274 HD
ENDROOT
BRANCH   1   5
HETATM    5  C1  BES   501      39.498  22.353 192.599  1.00  0.00     0.238 C 
BRANCH   5   6
HETATM    6  C2  BES   501      38.296  22.583 193.489  1.00  0.00     0.123 C 
BRANCH   6   7
HETATM    7  C3  BES   501      38.738  22.763 194.930  1.00  0.00     0.199 C 
HETATM    8  O3  BES   501      38.942  23.877 195.396  1.00  0.00    -0.280 OA
HETATM    9  N1  BES   501      38.957  21.563 195.746  1.00  0.00    -0.248 NA
HETATM   10  H7  BES   501      39.704  20.983 195.247  1.00  0.00     0.131 HD
BRANCH   9  11
HETATM   11  C4  BES   501      39.388  21.690 197.153  1.00  0.00     0.169 C 
BRANCH  11  12
HETATM   12  C13 BES   501      38.684  20.652 198.030  1.00  0.00     0.091 C 
BRANCH  12  13
HETATM   13  C7  BES   501      37.192  21.003 198.170  1.00  0.00     0.053 A 
HETATM   14  C14 BES   501      36.034  19.996 198.306  1.00  0.00     0.116 A 
HETATM   15  N15 BES   501      34.721  20.791 198.419  1.00  0.00    -0.359 N 
HETATM   16  C16 BES   501      35.066  22.291 198.354  1.00  0.00     0.207 A 
HETATM   17  H13 BES   501      33.740  20.376 198.525  1.00  0.00     0.166 HD
HETATM   18  N17 BES   501      36.593  22.421 198.200  1.00  0.00    -0.247 N 
ENDBRANCH  12  13
ENDBRANCH  11  12
BRANCH  11  19
HETATM   19  C5  BES   501      40.903  21.653 197.274  1.00  0.00     0.192 C 
HETATM   20  O1  BES   501      41.607  21.268 196.303  1.00  0.00    -0.647 OA
HETATM   21  O4  BES   501      41.467  22.019 198.340  1.00  0.00    -0.647 OA
ENDBRANCH  11  19
ENDBRANCH   9  11
ENDBRANCH   6   7
ENDBRANCH   5   6
ENDBRANCH   1   5
TORSDOF 7
ENDMDL
MODEL 8
REMARK VINA RESULT:    -1.816      4.350      8.321
REMARK INTER + INTRA:          -6.582
REMARK INTER:                  -3.513
REMARK INTRA:                  -3.069
REMARK UNBOUND:                -3.121
REMARK  10 active torsions:
REMARK  status: ('A' for Active; 'I' for Inactive)
REMARK    1  A    between atoms: N2_1  and  C1_2 
REMARK    2  A    between atoms: C1_2  and  C6_3 
REMARK    3  A    between atoms: C1_2  and  C2_10 
REMARK    4  A    between atoms: C6_3  and  C7_4 
REMARK    5  A    between atoms: C2_10  and  O2_11 
REMARK    6  A    between atoms: C2_10  and  C3_12 
REMARK       I    between atoms: C3_12  and  N1_14 
REMARK    7  A    between atoms: N1_14  and  C4_15 
REMARK    8  A    between atoms: C4_15  and  C13_16 
REMARK    9  A    between atoms: C4_15  and  C5_20 
REMARK   10  A    between atoms: C13_16  and  C14_17 
ROOT
HETATM    1  N2  BES   501      38.904  16.494 196.710  1.00  0.00    -0.423 N 
HETATM    2  H1  BES   501      39.189  17.215 195.972  1.00  0.00     0.150 HD
HETATM    3  H2  BES   501      38.060  15.859 196.540  1.00  0.00     0.150 HD
ENDROOT
BRANCH   1   4
HETATM    4  C1  BES   501      39.656  16.378 197.929  1.00  0.00     0.116 C 
BRANCH   4   5
HETATM    5  C6  BES   501      38.942  15.753 199.131  1.00  0.00     0.066 C 
BRANCH   5   6
HETATM    6  C7  BES   501      39.753  14.652 199.834  1.00  0.00    -0.056 A 
HETATM    7  C8  BES   501      40.450  13.667 199.099  1.00  0.00     0.007 A 
HETATM    8  C9  BES   501      41.191  12.671 199.772  1.00  0.00     0.001 A 
HETATM    9  C10 BES   501      41.248  12.663 201.163  1.00  0.00     0.000 A 
HETATM   10  C11 BES   501      40.560  13.649 201.894  1.00  0.00     0.001 A 
HETATM   11  C12 BES   501      39.819  14.645 201.222  1.00  0.00     0.007 A 
ENDBRANCH   5   6
ENDBRANCH   4   5
BRANCH   4  12
HETATM   12  C2  BES   501      40.021  17.775 198.329  1.00  0.00     0.232 C 
BRANCH  12  13
HETATM   13  O2  BES   501      40.278  18.496 197.194  1.00  0.00    -0.384 OA
HETATM   14  H12 BES   501      39.394  18.602 196.639  1.00  0.00     0.210 HD
ENDBRANCH  12  13
BRANCH  12  15
HETATM   15  C3  BES   501      41.246  17.732 199.195  1.00  0.00     0.249 C 
HETATM   16  O3  BES   501      41.219  18.362 200.229  1.00  0.00    -0.271 OA
HETATM   17  N1  BES   501      42.404  16.941 198.760  1.00  0.00    -0.344 N 
HETATM   18  H23 BES   501      42.325  16.409 197.834  1.00  0.00     0.163 HD
BRANCH  17  19
HETATM   19  C4  BES   501      43.658  16.825 199.504  1.00  0.00     0.185 C 
BRANCH  19  20
HETATM   20  C13 BES   501      43.782  15.414 200.088  1.00  0.00     0.040 C 
BRANCH  20  21
HETATM   21  C14 BES   501      44.229  15.475 201.535  1.00  0.00    -0.020 C 
HETATM   22  C15 BES   501      43.164  16.200 202.359  1.00  0.00     0.009 C 
HETATM   23  C16 BES   501      44.462  14.103 202.086  1.00  0.00     0.009 C 
ENDBRANCH  20  21
ENDBRANCH  19  20
BRANCH  19  24
HETATM   24  C5  BES   501      44.775  17.038 198.536  1.00  0.00     0.196 C 
HETATM   25  O1  BES   501      45.317  16.040 197.986  1.00  0.00    -0.646 OA
HETATM   26  O4  BES   501      45.097  18.239 198.274  1.00  0.00    -0.646 OA
ENDBRANCH  19  24
ENDBRANCH  17  19
ENDBRANCH  12  15
ENDBRANCH   4  12
ENDBRANCH   1   4
TORSDOF 10
REMARK  7 active torsions:
REMARK  status: ('A' for Active; 'I' for Inactive)
REMARK    1  A    between atoms: N2_1  and  C1_2 
REMARK    2  A    between atoms: C1_2  and  C2_3 
REMARK    3  A    between atoms: C2_3  and  C3_4 
REMARK       I    between atoms: C3_4  and  N1_6 
REMARK    4  A    between atoms: N1_6  and  C4_7 
REMARK    5  A    between atoms: C4_7  and  C13_8 
REMARK    6  A    between atoms: C4_7  and  C5_10 
REMARK    7  A    between atoms: C13_8  and  C7_9 
ROOT
HETATM    1  N2  BES   501      45.927  17.845 195.310  1.00  0.00    -0.079 N 
HETATM    2  H12 BES   501      45.420  17.587 196.216  1.00  0.00     0.274 HD
HETATM    3  H13 BES   501      45.274  17.680 194.478  1.00  0.00     0.274 HD
HETATM    4  H2  BES   501      46.210  18.877 195.341  1.00  0.00     0.274 HD
ENDROOT
BRANCH   1   5
HETATM    5  C1  BES   501      47.101  17.030 195.166  1.00  0.00     0.238 C 
BRANCH   5   6
HETATM    6  C2  BES   501      46.740  15.660 194.634  1.00  0.00     0.123 C 
BRANCH   6   7
HETATM    7  C3  BES   501      45.266  15.609 194.277  1.00  0.00     0.199 C 
HETATM    8  O3  BES   501      44.886  15.774 193.124  1.00  0.00    -0.280 OA
HETATM    9  N1  BES   501      44.295  15.399 195.357  1.00  0.00    -0.248 NA
HETATM   10  H7  BES   501      44.433  16.197 196.056  1.00  0.00     0.131 HD
BRANCH   9  11
HETATM   11  C4  BES   501      42.849  15.343 195.057  1.00  0.00     0.169 C 
BRANCH  11  12
HETATM   12  C13 BES   501      42.161  14.272 195.906  1.00  0.00     0.091 C 
BRANCH  12  13
HETATM   13  C7  BES   501      42.911  12.934 195.779  1.00  0.00     0.053 A 
HETATM   14  C14 BES   501      43.574  12.154 196.931  1.00  0.00     0.116 A 
HETATM   15  N15 BES   501      44.204  10.878 196.342  1.00  0.00    -0.359 N 
HETATM   16  C16 BES   501      43.929  10.868 194.826  1.00  0.00     0.207 A 
HETATM   17  H13 BES   501      44.737  10.129 196.890  1.00  0.00     0.166 HD
HETATM   18  N17 BES   501      43.131  12.138 194.479  1.00  0.00    -0.247 N 
ENDBRANCH  12  13
ENDBRANCH  11  12
BRANCH  11  19
HETATM   19  C5  BES   501      42.205  16.715 195.180  1.00  0.00     0.192 C 
HETATM   20  O1  BES   501      42.808  17.647 195.773  1.00  0.00    -0.647 OA
HETATM   21  O4  BES   501      41.070  16.934 194.677  1.00  0.00    -0.647 OA
ENDBRANCH  11  19
ENDBRANCH   9  11
ENDBRANCH   6   7
ENDBRANCH   5   6
ENDBRANCH   1   5
TORSDOF 7
ENDMDL
MODEL 9
REMARK VINA RESULT:    -1.795      3.427      7.817
REMARK INTER + INTRA:          -6.542
REMARK INTER:                  -3.460
REMARK INTRA:                  -3.082
REMARK UNBOUND:                -3.121
REMARK  10 active torsions:
REMARK  status: ('A' for Active; 'I' for Inactive)
REMARK    1  A    between atoms: N2_1  and  C1_2 
REMARK    2  A    between atoms: C1_2  and  C6_3 
REMARK    3  A    between atoms: C1_2  and  C2_10 
REMARK    4  A    between atoms: C6_3  and  C7_4 
REMARK    5  A    between atoms: C2_10  and  O2_11 
REMARK    6  A    between atoms: C2_10  and  C3_12 
REMARK       I    between atoms: C3_12  and  N1_14 
REMARK    7  A    between atoms: N1_14  and  C4_15 
REMARK    8  A    between atoms: C4_15  and  C13_16 
REMARK    9  A    between atoms: C4_15  and  C5_20 
REMARK   10  A    between atoms: C13_16  and  C14_17 
ROOT
HETATM    1  N2  BES   501      38.767  23.132 200.656  1.00  0.00    -0.423 N 
HETATM    2  H1  BES   501      39.818  23.333 200.676  1.00  0.00     0.150 HD
HETATM    3  H2  BES   501      38.095  23.836 200.211  1.00  0.00     0.150 HD
ENDROOT
BRANCH   1   4
HETATM    4  C1  BES   501      38.258  21.916 201.229  1.00  0.00     0.116 C 
BRANCH   4   5
HETATM    5  C6  BES   501      37.098  22.047 202.221  1.00  0.00     0.066 C 
BRANCH   5   6
HETATM    6  C7  BES   501      35.843  21.253 201.818  1.00  0.00    -0.056 A 
HETATM    7  C8  BES   501      35.645  20.811 200.491  1.00  0.00     0.007 A 
HETATM    8  C9  BES   501      34.485  20.079 200.154  1.00  0.00     0.001 A 
HETATM    9  C10 BES   501      33.538  19.781 201.129  1.00  0.00     0.000 A 
HETATM   10  C11 BES   501      33.740  20.215 202.452  1.00  0.00     0.001 A 
HETATM   11  C12 BES   501      34.899  20.947 202.792  1.00  0.00     0.007 A 
ENDBRANCH   5   6
ENDBRANCH   4   5
BRANCH   4  12
HETATM   12  C2  BES   501      39.396  21.301 201.983  1.00  0.00     0.232 C 
BRANCH  12  13
HETATM   13  O2  BES   501      40.550  21.523 201.282  1.00  0.00    -0.384 OA
HETATM   14  H12 BES   501      40.601  20.859 200.471  1.00  0.00     0.210 HD
ENDBRANCH  12  13
BRANCH  12  15
HETATM   15  C3  BES   501      39.155  19.825 202.117  1.00  0.00     0.249 C 
HETATM   16  O3  BES   501      39.310  19.332 203.212  1.00  0.00    -0.271 OA
HETATM   17  N1  BES   501      38.747  19.057 200.934  1.00  0.00    -0.344 N 
HETATM   18  H23 BES   501      38.625  19.588 200.012  1.00  0.00     0.163 HD
BRANCH  17  19
HETATM   19  C4  BES   501      38.492  17.617 200.926  1.00  0.00     0.185 C 
BRANCH  19  20
HETATM   20  C13 BES   501      37.112  17.341 200.321  1.00  0.00     0.040 C 
BRANCH  20  21
HETATM   21  C14 BES   501      36.241  16.585 201.304  1.00  0.00    -0.020 C 
HETATM   22  C15 BES   501      36.157  17.375 202.611  1.00  0.00     0.009 C 
HETATM   23  C16 BES   501      34.870  16.360 200.748  1.00  0.00     0.009 C 
ENDBRANCH  20  21
ENDBRANCH  19  20
BRANCH  19  24
HETATM   24  C5  BES   501      39.527  16.982 200.057  1.00  0.00     0.196 C 
HETATM   25  O1  BES   501      39.189  16.506 198.938  1.00  0.00    -0.646 OA
HETATM   26  O4  BES   501      40.728  16.998 200.474  1.00  0.00    -0.646 OA
ENDBRANCH  19  24
ENDBRANCH  17  19
ENDBRANCH  12  15
ENDBRANCH   4  12
ENDBRANCH   1   4
TORSDOF 10
REMARK  7 active torsions:
REMARK  status: ('A' for Active; 'I' for Inactive)
REMARK    1  A    between atoms: N2_1  and  C1_2 
REMARK    2  A    between atoms: C1_2  and  C2_3 
REMARK    3  A    between atoms: C2_3  and  C3_4 
REMARK       I    between atoms: C3_4  and  N1_6 
REMARK    4  A    between atoms: N1_6  and  C4_7 
REMARK    5  A    between atoms: C4_7  and  C13_8 
REMARK    6  A    between atoms: C4_7  and  C5_10 
REMARK    7  A    between atoms: C13_8  and  C7_9 
ROOT
HETATM    1  N2  BES   501      42.068  17.382 197.618  1.00  0.00    -0.079 N 
HETATM    2  H12 BES   501      42.280  16.960 198.578  1.00  0.00     0.274 HD
HETATM    3  H13 BES   501      41.200  18.004 197.688  1.00  0.00     0.274 HD
HETATM    4  H2  BES   501      42.902  17.969 197.294  1.00  0.00     0.274 HD
ENDROOT
BRANCH   1   5
HETATM    5  C1  BES   501      41.827  16.328 196.671  1.00  0.00     0.238 C 
BRANCH   5   6
HETATM    6  C2  BES   501      40.926  16.809 195.554  1.00  0.00     0.123 C 
BRANCH   6   7
HETATM    7  C3  BES   501      40.511  18.248 195.798  1.00  0.00     0.199 C 
HETATM    8  O3  BES   501      41.016  19.170 195.170  1.00  0.00    -0.280 OA
HETATM    9  N1  BES   501      39.513  18.517 196.840  1.00  0.00    -0.248 NA
HETATM   10  H7  BES   501      39.912  18.133 197.756  1.00  0.00     0.131 HD
BRANCH   9  11
HETATM   11  C4  BES   501      39.079  19.902 197.113  1.00  0.00     0.169 C 
BRANCH  11  12
HETATM   12  C13 BES   501      37.614  19.933 197.556  1.00  0.00     0.091 C 
BRANCH  12  13
HETATM   13  C7  BES   501      36.817  20.913 196.676  1.00  0.00     0.053 A 
HETATM   14  C14 BES   501      35.706  20.535 195.677  1.00  0.00     0.116 A 
HETATM   15  N15 BES   501      35.192  21.831 195.024  1.00  0.00    -0.359 N 
HETATM   16  C16 BES   501      35.984  23.011 195.620  1.00  0.00     0.207 A 
HETATM   17  H13 BES   501      34.419  21.901 194.286  1.00  0.00     0.166 HD
HETATM   18  N17 BES   501      36.987  22.443 196.640  1.00  0.00    -0.247 N 
ENDBRANCH  12  13
ENDBRANCH  11  12
BRANCH  11  19
HETATM   19  C5  BES   501      40.017  20.595 198.089  1.00  0.00     0.192 C 
HETATM   20  O1  BES   501      40.807  19.916 198.798  1.00  0.00    -0.647 OA
HETATM   21  O4  BES   501      40.023  21.851 198.186  1.00  0.00    -0.647 OA
ENDBRANCH  11  19
ENDBRANCH   9  11
ENDBRANCH   6   7
ENDBRANCH   5   6
ENDBRANCH   1   5
TORSDOF 7
ENDMDL
