MODEL 1
REMARK VINA RESULT:     0.000      0.000      0.000
REMARK INTER + INTRA:          -1.762
REMARK INTER:                   0.000
REMARK INTRA:                  -1.762
REMARK UNBOUND:                -1.762
REMARK  9 active torsions:
REMARK  status: ('A' for Active; 'I' for Inactive)
REMARK    1  A    between atoms: C70_1  and  C1_2 
REMARK    2  A    between atoms: C70_1  and  N12_20 
REMARK    3  A    between atoms: C1_2  and  C2_3 
REMARK    4  A    between atoms: C2_3  and  C3_4 
REMARK    5  A    between atoms: C2_3  and  O5_17 
REMARK       I    between atoms: C3_4  and  N1_6 
REMARK    6  A    between atoms: N1_6  and  C4_7 
REMARK    7  A    between atoms: C4_7  and  C13_8 
REMARK    8  A    between atoms: C4_7  and  C5_10 
REMARK    9  A    between atoms: C13_8  and  C7_9 
ROOT
HETATM    1  C70 BES A 501      45.928  17.951 193.702  1.00  6.08     0.232 C 
ENDROOT
BRANCH   1   2
HETATM    2  C1  BES A 501      44.917  18.105 194.671  1.00  6.71     0.068 C 
BRANCH   2   3
HETATM    3  C2  BES A 501      44.415  16.867 195.345  1.00  9.09     0.205 C 
BRANCH   3   4
HETATM    4  C3  BES A 501      42.998  16.617 194.915  1.00  8.29     0.227 C 
HETATM    5  O3  BES A 501      42.284  16.003 195.677  1.00  7.85    -0.277 OA
HETATM    6  N1  BES A 501      42.544  17.124 193.612  1.00  8.97    -0.246 NA
HETATM    7  H7  BES A 501      43.204  16.690 192.890  1.00  8.27     0.131 HD
BRANCH   6   8
HETATM    8  C4  BES A 501      41.197  16.939 193.073  1.00 10.85     0.169 C 
BRANCH   8   9
HETATM    9  C13 BES A 501      40.463  18.284 193.054  1.00  8.22     0.089 C 
BRANCH   9  10
HETATM   10  C7  BES A 501      41.467  19.449 193.144  1.00 11.21     0.029 A 
HETATM   11  C21 BES A 501      41.516  20.516 194.254  1.00  0.00     0.143 A 
HETATM   12  N22 BES A 501      42.677  21.477 193.937  1.00  0.00    -0.254 N 
HETATM   13  C23 BES A 501      43.344  21.005 192.631  1.00  0.00     0.207 A 
HETATM   14  N24 BES A 501      42.596  19.750 192.142  1.00  0.00    -0.353 N 
HETATM   15  H13 BES A 501      42.821  19.187 191.260  1.00  8.23     0.166 HD
ENDBRANCH   9  10
ENDBRANCH   8   9
BRANCH   8  16
HETATM   16  C5  BES A 501      41.338  16.455 191.668  1.00 10.09     0.192 C 
HETATM   17  O1  BES A 501      40.376  15.846 191.124  1.00  5.58    -0.647 OA
HETATM   18  O4  BES A 501      42.423  16.725 191.065  1.00  5.29    -0.647 OA
ENDBRANCH   8  16
ENDBRANCH   6   8
ENDBRANCH   3   4
BRANCH   3  19
HETATM   19  O5  BES A 501      45.271  15.699 194.955  1.00  8.27    -0.387 OA
HETATM   20  H15 BES A 501      46.272  16.008 194.883  1.00  8.22     0.210 HD
ENDBRANCH   3  19
ENDBRANCH   2   3
ENDBRANCH   1   2
BRANCH   1  21
HETATM   21  N12 BES A 501      45.311  17.485 192.393  1.00  8.22    -0.079 N 
HETATM   22  H14 BES A 501      45.611  18.141 191.603  1.00  8.22     0.274 HD
HETATM   23  H15 BES A 501      44.245  17.494 192.478  1.00  8.22     0.274 HD
HETATM   24  H1  BES A 501      45.643  16.491 192.175  1.00  8.22     0.274 HD
ENDBRANCH   1  21
TORSDOF 9
ENDMDL
MODEL 2
REMARK VINA RESULT:     0.001      6.846      8.796
REMARK INTER + INTRA:          -1.760
REMARK INTER:                   0.000
REMARK INTRA:                  -1.760
REMARK UNBOUND:                -1.762
REMARK  9 active torsions:
REMARK  status: ('A' for Active; 'I' for Inactive)
REMARK    1  A    between atoms: C70_1  and  C1_2 
REMARK    2  A    between atoms: C70_1  and  N12_20 
REMARK    3  A    between atoms: C1_2  and  C2_3 
REMARK    4  A    between atoms: C2_3  and  C3_4 
REMARK    5  A    between atoms: C2_3  and  O5_17 
REMARK       I    between atoms: C3_4  and  N1_6 
REMARK    6  A    between atoms: N1_6  and  C4_7 
REMARK    7  A    between atoms: C4_7  and  C13_8 
REMARK    8  A    between atoms: C4_7  and  C5_10 
REMARK    9  A    between atoms: C13_8  and  C7_9 
ROOT
HETATM    1  C70 BES A 501      38.436  14.585 195.674  1.00  6.08     0.232 C 
ENDROOT
BRANCH   1   2
HETATM    2  C1  BES A 501      39.694  13.951 195.712  1.00  6.71     0.068 C 
BRANCH   2   3
HETATM    3  C2  BES A 501      40.091  13.138 194.519  1.00  9.09     0.205 C 
BRANCH   3   4
HETATM    4  C3  BES A 501      40.126  11.688 194.907  1.00  8.29     0.227 C 
HETATM    5  O3  BES A 501      40.864  10.961 194.280  1.00  7.85    -0.277 OA
HETATM    6  N1  BES A 501      39.282  11.222 196.016  1.00  8.97    -0.246 NA
HETATM    7  H7  BES A 501      38.280  11.480 195.743  1.00  8.27     0.131 HD
BRANCH   6   8
HETATM    8  C4  BES A 501      39.216   9.837 196.484  1.00 10.85     0.169 C 
BRANCH   8   9
HETATM    9  C13 BES A 501      39.862   9.732 197.869  1.00  8.22     0.089 C 
BRANCH   9  10
HETATM   10  C7  BES A 501      39.946  11.120 198.533  1.00 11.21     0.029 A 
HETATM   11  C21 BES A 501      41.237  11.832 198.979  1.00  0.00     0.143 A 
HETATM   12  N22 BES A 501      40.844  13.191 199.588  1.00  0.00    -0.254 N 
HETATM   13  C23 BES A 501      39.311  13.319 199.518  1.00  0.00     0.207 A 
HETATM   14  N24 BES A 501      38.756  12.038 198.865  1.00  0.00    -0.353 N 
HETATM   15  H13 BES A 501      37.725  11.825 198.677  1.00  8.23     0.166 HD
ENDBRANCH   9  10
ENDBRANCH   8   9
BRANCH   8  16
HETATM   16  C5  BES A 501      37.773   9.472 196.604  1.00 10.09     0.192 C 
HETATM   17  O1  BES A 501      37.440   8.255 196.593  1.00  5.58    -0.647 OA
HETATM   18  O4  BES A 501      36.943  10.421 196.759  1.00  5.29    -0.647 OA
ENDBRANCH   8  16
ENDBRANCH   6   8
ENDBRANCH   3   4
BRANCH   3  19
HETATM   19  O5  BES A 501      39.093  13.339 193.418  1.00  8.27    -0.387 OA
HETATM   20  H15 BES A 501      38.628  12.424 193.196  1.00  8.22     0.210 HD
ENDBRANCH   3  19
ENDBRANCH   2   3
ENDBRANCH   1   2
BRANCH   1  21
HETATM   21  N12 BES A 501      37.348  13.573 195.997  1.00  8.22    -0.079 N 
HETATM   22  H14 BES A 501      36.635  13.548 195.200  1.00  8.22     0.274 HD
HETATM   23  H15 BES A 501      36.857  13.854 196.905  1.00  8.22     0.274 HD
HETATM   24  H1  BES A 501      37.785  12.603 196.114  1.00  8.22     0.274 HD
ENDBRANCH   1  21
TORSDOF 9
ENDMDL
MODEL 3
REMARK VINA RESULT:     0.001     10.687     12.631
REMARK INTER + INTRA:          -1.760
REMARK INTER:                   0.000
REMARK INTRA:                  -1.760
REMARK UNBOUND:                -1.762
REMARK  9 active torsions:
REMARK  status: ('A' for Active; 'I' for Inactive)
REMARK    1  A    between atoms: C70_1  and  C1_2 
REMARK    2  A    between atoms: C70_1  and  N12_20 
REMARK    3  A    between atoms: C1_2  and  C2_3 
REMARK    4  A    between atoms: C2_3  and  C3_4 
REMARK    5  A    between atoms: C2_3  and  O5_17 
REMARK       I    between atoms: C3_4  and  N1_6 
REMARK    6  A    between atoms: N1_6  and  C4_7 
REMARK    7  A    between atoms: C4_7  and  C13_8 
REMARK    8  A    between atoms: C4_7  and  C5_10 
REMARK    9  A    between atoms: C13_8  and  C7_9 
ROOT
HETATM    1  C70 BES A 501      34.047  12.882 202.639  1.00  6.08     0.232 C 
ENDROOT
BRANCH   1   2
HETATM    2  C1  BES A 501      35.246  13.598 202.452  1.00  6.71     0.068 C 
BRANCH   2   3
HETATM    3  C2  BES A 501      35.468  14.230 201.113  1.00  9.09     0.205 C 
BRANCH   3   4
HETATM    4  C3  BES A 501      36.599  13.523 200.422  1.00  8.29     0.227 C 
HETATM    5  O3  BES A 501      37.233  14.153 199.606  1.00  7.85    -0.277 OA
HETATM    6  N1  BES A 501      36.884  12.123 200.764  1.00  8.97    -0.246 NA
HETATM    7  H7  BES A 501      35.977  11.589 200.572  1.00  8.27     0.131 HD
BRANCH   6   8
HETATM    8  C4  BES A 501      37.947  11.320 200.158  1.00 10.85     0.169 C 
BRANCH   8   9
HETATM    9  C13 BES A 501      39.044  11.055 201.193  1.00  8.22     0.089 C 
BRANCH   9  10
HETATM   10  C7  BES A 501      38.508  11.281 202.619  1.00 11.21     0.029 A 
HETATM   11  C21 BES A 501      39.049  12.302 203.637  1.00  0.00     0.143 A 
HETATM   12  N22 BES A 501      38.212  12.179 204.924  1.00  0.00    -0.254 N 
HETATM   13  C23 BES A 501      37.155  11.081 204.702  1.00  0.00     0.207 A 
HETATM   14  N24 BES A 501      37.337  10.526 203.276  1.00  0.00    -0.353 N 
HETATM   15  H13 BES A 501      36.754   9.753 202.822  1.00  8.23     0.166 HD
ENDBRANCH   9  10
ENDBRANCH   8   9
BRANCH   8  16
HETATM   16  C5  BES A 501      37.347  10.013 199.755  1.00 10.09     0.192 C 
HETATM   17  O1  BES A 501      37.920   9.316 198.871  1.00  5.58    -0.647 OA
HETATM   18  O4  BES A 501      36.298   9.641 200.365  1.00  5.29    -0.647 OA
ENDBRANCH   8  16
ENDBRANCH   6   8
ENDBRANCH   3   4
BRANCH   3  19
HETATM   19  O5  BES A 501      34.222  14.111 200.288  1.00  8.27    -0.387 OA
HETATM   20  H15 BES A 501      34.310  13.290 199.638  1.00  8.22     0.210 HD
ENDBRANCH   3  19
ENDBRANCH   2   3
ENDBRANCH   1   2
BRANCH   1  21
HETATM   21  N12 BES A 501      34.175  11.504 202.008  1.00  8.22    -0.079 N 
HETATM   22  H14 BES A 501      33.384  10.876 202.359  1.00  8.22     0.274 HD
HETATM   23  H15 BES A 501      35.117  11.075 202.275  1.00  8.22     0.274 HD
HETATM   24  H1  BES A 501      34.113  11.593 200.943  1.00  8.22     0.274 HD
ENDBRANCH   1  21
TORSDOF 9
ENDMDL
MODEL 4
REMARK VINA RESULT:     0.001      8.860     10.056
REMARK INTER + INTRA:          -1.760
REMARK INTER:                   0.000
REMARK INTRA:                  -1.760
REMARK UNBOUND:                -1.762
REMARK  9 active torsions:
REMARK  status: ('A' for Active; 'I' for Inactive)
REMARK    1  A    between atoms: C70_1  and  C1_2 
REMARK    2  A    between atoms: C70_1  and  N12_20 
REMARK    3  A    between atoms: C1_2  and  C2_3 
REMARK    4  A    between atoms: C2_3  and  C3_4 
REMARK    5  A    between atoms: C2_3  and  O5_17 
REMARK       I    between atoms: C3_4  and  N1_6 
REMARK    6  A    between atoms: N1_6  and  C4_7 
REMARK    7  A    between atoms: C4_7  and  C13_8 
REMARK    8  A    between atoms: C4_7  and  C5_10 
REMARK    9  A    between atoms: C13_8  and  C7_9 
ROOT
HETATM    1  C70 BES A 501      39.019  18.421 204.599  1.00  6.08     0.232 C 
ENDROOT
BRANCH   1   2
HETATM    2  C1  BES A 501      38.036  17.453 204.311  1.00  6.71     0.068 C 
BRANCH   2   3
HETATM    3  C2  BES A 501      38.462  16.018 204.311  1.00  9.09     0.205 C 
BRANCH   3   4
HETATM    4  C3  BES A 501      38.399  15.490 202.907  1.00  8.29     0.227 C 
HETATM    5  O3  BES A 501      38.222  14.300 202.766  1.00  7.85    -0.277 OA
HETATM    6  N1  BES A 501      38.545  16.425 201.782  1.00  8.97    -0.246 NA
HETATM    7  H7  BES A 501      39.492  16.902 201.927  1.00  8.27     0.131 HD
BRANCH   6   8
HETATM    8  C4  BES A 501      38.513  16.038 200.372  1.00 10.85     0.169 C 
BRANCH   8   9
HETATM    9  C13 BES A 501      37.232  16.570 199.722  1.00  8.22     0.089 C 
BRANCH   9  10
HETATM   10  C7  BES A 501      36.627  17.705 200.571  1.00 11.21     0.029 A 
HETATM   11  C21 BES A 501      35.227  17.706 201.213  1.00  0.00     0.143 A 
HETATM   12  N22 BES A 501      35.051  19.038 201.966  1.00  0.00    -0.254 N 
HETATM   13  C23 BES A 501      36.341  19.861 201.788  1.00  0.00     0.207 A 
HETATM   14  N24 BES A 501      37.316  19.036 200.925  1.00  0.00    -0.353 N 
HETATM   15  H13 BES A 501      38.298  19.335 200.626  1.00  8.23     0.166 HD
ENDBRANCH   9  10
ENDBRANCH   8   9
BRANCH   8  16
HETATM   16  C5  BES A 501      39.686  16.678 199.704  1.00 10.09     0.192 C 
HETATM   17  O1  BES A 501      40.117  16.200 198.618  1.00  5.58    -0.647 OA
HETATM   18  O4  BES A 501      40.170  17.718 200.249  1.00  5.29    -0.647 OA
ENDBRANCH   8  16
ENDBRANCH   6   8
ENDBRANCH   3   4
BRANCH   3  19
HETATM   19  O5  BES A 501      39.867  15.910 204.825  1.00  8.27    -0.387 OA
HETATM   20  H15 BES A 501      40.225  16.867 205.069  1.00  8.22     0.210 HD
ENDBRANCH   3  19
ENDBRANCH   2   3
ENDBRANCH   1   2
BRANCH   1  21
HETATM   21  N12 BES A 501      39.866  18.669 203.360  1.00  8.22    -0.079 N 
HETATM   22  H14 BES A 501      39.287  18.459 202.485  1.00  8.22     0.274 HD
HETATM   23  H15 BES A 501      40.724  18.031 203.381  1.00  8.22     0.274 HD
HETATM   24  H1  BES A 501      40.181  19.691 203.343  1.00  8.22     0.274 HD
ENDBRANCH   1  21
TORSDOF 9
ENDMDL
MODEL 5
REMARK VINA RESULT:     0.001      7.212      8.971
REMARK INTER + INTRA:          -1.760
REMARK INTER:                   0.000
REMARK INTRA:                  -1.760
REMARK UNBOUND:                -1.762
REMARK  9 active torsions:
REMARK  status: ('A' for Active; 'I' for Inactive)
REMARK    1  A    between atoms: C70_1  and  C1_2 
REMARK    2  A    between atoms: C70_1  and  N12_20 
REMARK    3  A    between atoms: C1_2  and  C2_3 
REMARK    4  A    between atoms: C2_3  and  C3_4 
REMARK    5  A    between atoms: C2_3  and  O5_17 
REMARK       I    between atoms: C3_4  and  N1_6 
REMARK    6  A    between atoms: N1_6  and  C4_7 
REMARK    7  A    between atoms: C4_7  and  C13_8 
REMARK    8  A    between atoms: C4_7  and  C5_10 
REMARK    9  A    between atoms: C13_8  and  C7_9 
ROOT
HETATM    1  C70 BES A 501      34.154  14.681 196.180  1.00  6.08     0.232 C 
ENDROOT
BRANCH   1   2
HETATM    2  C1  BES A 501      35.312  15.279 195.643  1.00  6.71     0.068 C 
BRANCH   2   3
HETATM    3  C2  BES A 501      36.635  14.749 196.101  1.00  9.09     0.205 C 
BRANCH   3   4
HETATM    4  C3  BES A 501      37.322  15.798 196.928  1.00  8.29     0.227 C 
HETATM    5  O3  BES A 501      38.531  15.772 196.967  1.00  7.85    -0.277 OA
HETATM    6  N1  BES A 501      36.509  16.796 197.637  1.00  8.97    -0.246 NA
HETATM    7  H7  BES A 501      35.853  16.236 198.270  1.00  8.27     0.131 HD
BRANCH   6   8
HETATM    8  C4  BES A 501      37.053  17.861 198.481  1.00 10.85     0.169 C 
BRANCH   8   9
HETATM    9  C13 BES A 501      36.841  19.216 197.799  1.00  8.22     0.089 C 
BRANCH   9  10
HETATM   10  C7  BES A 501      35.747  19.112 196.718  1.00 11.21     0.029 A 
HETATM   11  C21 BES A 501      35.929  19.400 195.216  1.00  0.00     0.143 A 
HETATM   12  N22 BES A 501      34.575  19.167 194.521  1.00  0.00    -0.254 N 
HETATM   13  C23 BES A 501      33.556  18.736 195.592  1.00  0.00     0.207 A 
HETATM   14  N24 BES A 501      34.281  18.701 196.951  1.00  0.00    -0.353 N 
HETATM   15  H13 BES A 501      33.843  18.438 197.891  1.00  8.23     0.166 HD
ENDBRANCH   9  10
ENDBRANCH   8   9
BRANCH   8  16
HETATM   16  C5  BES A 501      36.289  17.850 199.764  1.00 10.09     0.192 C 
HETATM   17  O1  BES A 501      36.800  18.373 200.793  1.00  5.58    -0.647 OA
HETATM   18  O4  BES A 501      35.123  17.347 199.744  1.00  5.29    -0.647 OA
ENDBRANCH   8  16
ENDBRANCH   6   8
ENDBRANCH   3   4
BRANCH   3  19
HETATM   19  O5  BES A 501      36.425  13.516 196.929  1.00  8.27    -0.387 OA
HETATM   20  H15 BES A 501      36.017  13.784 197.859  1.00  8.22     0.210 HD
ENDBRANCH   3  19
ENDBRANCH   2   3
ENDBRANCH   1   2
BRANCH   1  21
HETATM   21  N12 BES A 501      33.897  15.233 197.574  1.00  8.22    -0.079 N 
HETATM   22  H14 BES A 501      33.018  15.842 197.560  1.00  8.22     0.274 HD
HETATM   23  H15 BES A 501      34.734  15.823 197.884  1.00  8.22     0.274 HD
HETATM   24  H1  BES A 501      33.759  14.423 198.259  1.00  8.22     0.274 HD
ENDBRANCH   1  21
TORSDOF 9
ENDMDL
MODEL 6
REMARK VINA RESULT:     0.002      3.349      5.208
REMARK INTER + INTRA:          -1.759
REMARK INTER:                   0.000
REMARK INTRA:                  -1.759
REMARK UNBOUND:                -1.762
REMARK  9 active torsions:
REMARK  status: ('A' for Active; 'I' for Inactive)
REMARK    1  A    between atoms: C70_1  and  C1_2 
REMARK    2  A    between atoms: C70_1  and  N12_20 
REMARK    3  A    between atoms: C1_2  and  C2_3 
REMARK    4  A    between atoms: C2_3  and  C3_4 
REMARK    5  A    between atoms: C2_3  and  O5_17 
REMARK       I    between atoms: C3_4  and  N1_6 
REMARK    6  A    between atoms: N1_6  and  C4_7 
REMARK    7  A    between atoms: C4_7  and  C13_8 
REMARK    8  A    between atoms: C4_7  and  C5_10 
REMARK    9  A    between atoms: C13_8  and  C7_9 
ROOT
HETATM    1  C70 BES A 501      40.282  14.371 198.393  1.00  6.08     0.232 C 
ENDROOT
BRANCH   1   2
HETATM    2  C1  BES A 501      40.063  14.058 197.036  1.00  6.71     0.068 C 
BRANCH   2   3
HETATM    3  C2  BES A 501      41.088  13.207 196.353  1.00  9.09     0.205 C 
BRANCH   3   4
HETATM    4  C3  BES A 501      41.803  14.036 195.325  1.00  8.29     0.227 C 
HETATM    5  O3  BES A 501      42.285  13.455 194.378  1.00  7.85    -0.277 OA
HETATM    6  N1  BES A 501      41.883  15.492 195.508  1.00  8.97    -0.246 NA
HETATM    7  H7  BES A 501      42.356  15.638 196.457  1.00  8.27     0.131 HD
BRANCH   6   8
HETATM    8  C4  BES A 501      42.558  16.408 194.588  1.00 10.85     0.169 C 
BRANCH   8   9
HETATM    9  C13 BES A 501      41.518  17.275 193.871  1.00  8.22     0.089 C 
BRANCH   9  10
HETATM   10  C7  BES A 501      40.183  17.266 194.641  1.00 11.21     0.029 A 
HETATM   11  C21 BES A 501      38.828  16.777 194.096  1.00  0.00     0.143 A 
HETATM   12  N22 BES A 501      37.778  16.953 195.209  1.00  0.00    -0.254 N 
HETATM   13  C23 BES A 501      38.484  17.551 196.440  1.00  0.00     0.207 A 
HETATM   14  N24 BES A 501      39.971  17.744 196.089  1.00  0.00    -0.353 N 
HETATM   15  H13 BES A 501      40.724  18.140 196.738  1.00  8.23     0.166 HD
ENDBRANCH   9  10
ENDBRANCH   8   9
BRANCH   8  16
HETATM   16  C5  BES A 501      43.436  17.298 195.405  1.00 10.09     0.192 C 
HETATM   17  O1  BES A 501      44.406  17.886 194.853  1.00  5.58    -0.647 OA
HETATM   18  O4  BES A 501      43.129  17.456 196.627  1.00  5.29    -0.647 OA
ENDBRANCH   8  16
ENDBRANCH   6   8
ENDBRANCH   3   4
BRANCH   3  19
HETATM   19  O5  BES A 501      42.073  12.698 197.362  1.00  8.27    -0.387 OA
HETATM   20  H15 BES A 501      42.774  12.078 196.885  1.00  8.22     0.210 HD
ENDBRANCH   3  19
ENDBRANCH   2   3
ENDBRANCH   1   2
BRANCH   1  21
HETATM   21  N12 BES A 501      41.294  15.502 198.496  1.00  8.22    -0.079 N 
HETATM   22  H14 BES A 501      40.781  16.440 198.497  1.00  8.22     0.274 HD
HETATM   23  H15 BES A 501      41.961  15.461 197.661  1.00  8.22     0.274 HD
HETATM   24  H1  BES A 501      41.852  15.399 199.403  1.00  8.22     0.274 HD
ENDBRANCH   1  21
TORSDOF 9
ENDMDL
MODEL 7
REMARK VINA RESULT:     0.002      3.866      6.047
REMARK INTER + INTRA:          -1.759
REMARK INTER:                   0.000
REMARK INTRA:                  -1.759
REMARK UNBOUND:                -1.762
REMARK  9 active torsions:
REMARK  status: ('A' for Active; 'I' for Inactive)
REMARK    1  A    between atoms: C70_1  and  C1_2 
REMARK    2  A    between atoms: C70_1  and  N12_20 
REMARK    3  A    between atoms: C1_2  and  C2_3 
REMARK    4  A    between atoms: C2_3  and  C3_4 
REMARK    5  A    between atoms: C2_3  and  O5_17 
REMARK       I    between atoms: C3_4  and  N1_6 
REMARK    6  A    between atoms: N1_6  and  C4_7 
REMARK    7  A    between atoms: C4_7  and  C13_8 
REMARK    8  A    between atoms: C4_7  and  C5_10 
REMARK    9  A    between atoms: C13_8  and  C7_9 
ROOT
HETATM    1  C70 BES A 501      41.084  14.206 196.574  1.00  6.08     0.232 C 
ENDROOT
BRANCH   1   2
HETATM    2  C1  BES A 501      41.371  15.417 195.913  1.00  6.71     0.068 C 
BRANCH   2   3
HETATM    3  C2  BES A 501      42.465  15.400 194.892  1.00  9.09     0.205 C 
BRANCH   3   4
HETATM    4  C3  BES A 501      43.621  16.213 195.402  1.00  8.29     0.227 C 
HETATM    5  O3  BES A 501      44.355  16.714 194.581  1.00  7.85    -0.277 OA
HETATM    6  N1  BES A 501      43.804  16.365 196.853  1.00  8.97    -0.246 NA
HETATM    7  H7  BES A 501      43.887  15.370 197.238  1.00  8.27     0.131 HD
BRANCH   6   8
HETATM    8  C4  BES A 501      44.892  17.120 197.477  1.00 10.85     0.169 C 
BRANCH   8   9
HETATM    9  C13 BES A 501      44.328  18.381 198.139  1.00  8.22     0.089 C 
BRANCH   9  10
HETATM   10  C7  BES A 501      42.810  18.242 198.360  1.00 11.21     0.029 A 
HETATM   11  C21 BES A 501      41.722  19.158 197.768  1.00  0.00     0.143 A 
HETATM   12  N22 BES A 501      40.353  18.646 198.254  1.00  0.00    -0.254 N 
HETATM   13  C23 BES A 501      40.595  17.414 199.146  1.00  0.00     0.207 A 
HETATM   14  N24 BES A 501      42.114  17.164 199.212  1.00  0.00    -0.353 N 
HETATM   15  H13 BES A 501      42.600  16.380 199.753  1.00  8.23     0.166 HD
ENDBRANCH   9  10
ENDBRANCH   8   9
BRANCH   8  16
HETATM   16  C5  BES A 501      45.488  16.252 198.537  1.00 10.09     0.192 C 
HETATM   17  O1  BES A 501      46.662  16.485 198.938  1.00  5.58    -0.647 OA
HETATM   18  O4  BES A 501      44.754  15.337 199.022  1.00  5.29    -0.647 OA
ENDBRANCH   8  16
ENDBRANCH   6   8
ENDBRANCH   3   4
BRANCH   3  19
HETATM   19  O5  BES A 501      42.911  13.988 194.654  1.00  8.27    -0.387 OA
HETATM   20  H15 BES A 501      42.459  13.621 193.781  1.00  8.22     0.210 HD
ENDBRANCH   3  19
ENDBRANCH   2   3
ENDBRANCH   1   2
BRANCH   1  21
HETATM   21  N12 BES A 501      42.109  13.972 197.672  1.00  8.22    -0.079 N 
HETATM   22  H14 BES A 501      42.362  12.933 197.708  1.00  8.22     0.274 HD
HETATM   23  H15 BES A 501      41.699  14.272 198.613  1.00  8.22     0.274 HD
HETATM   24  H1  BES A 501      42.989  14.546 197.467  1.00  8.22     0.274 HD
ENDBRANCH   1  21
TORSDOF 9
ENDMDL
MODEL 8
REMARK VINA RESULT:     0.002      9.462     11.236
REMARK INTER + INTRA:          -1.759
REMARK INTER:                   0.000
REMARK INTRA:                  -1.759
REMARK UNBOUND:                -1.762
REMARK  9 active torsions:
REMARK  status: ('A' for Active; 'I' for Inactive)
REMARK    1  A    between atoms: C70_1  and  C1_2 
REMARK    2  A    between atoms: C70_1  and  N12_20 
REMARK    3  A    between atoms: C1_2  and  C2_3 
REMARK    4  A    between atoms: C2_3  and  C3_4 
REMARK    5  A    between atoms: C2_3  and  O5_17 
REMARK       I    between atoms: C3_4  and  N1_6 
REMARK    6  A    between atoms: N1_6  and  C4_7 
REMARK    7  A    between atoms: C4_7  and  C13_8 
REMARK    8  A    between atoms: C4_7  and  C5_10 
REMARK    9  A    between atoms: C13_8  and  C7_9 
ROOT
HETATM    1  C70 BES A 501      31.415  16.044 196.799  1.00  6.08     0.232 C 
ENDROOT
BRANCH   1   2
HETATM    2  C1  BES A 501      32.784  15.884 196.506  1.00  6.71     0.068 C 
BRANCH   2   3
HETATM    3  C2  BES A 501      33.550  17.107 196.107  1.00  9.09     0.205 C 
BRANCH   3   4
HETATM    4  C3  BES A 501      33.942  16.987 194.662  1.00  8.29     0.227 C 
HETATM    5  O3  BES A 501      34.930  17.586 194.301  1.00  7.85    -0.277 OA
HETATM    6  N1  BES A 501      33.124  16.158 193.764  1.00  8.97    -0.246 NA
HETATM    7  H7  BES A 501      32.135  16.564 193.819  1.00  8.27     0.131 HD
BRANCH   6   8
HETATM    8  C4  BES A 501      33.391  15.968 192.338  1.00 10.85     0.169 C 
BRANCH   8   9
HETATM    9  C13 BES A 501      33.848  14.528 192.089  1.00  8.22     0.089 C 
BRANCH   9  10
HETATM   10  C7  BES A 501      33.448  13.622 193.269  1.00 11.21     0.029 A 
HETATM   11  C21 BES A 501      34.413  12.818 194.160  1.00  0.00     0.143 A 
HETATM   12  N22 BES A 501      33.574  12.061 195.206  1.00  0.00    -0.254 N 
HETATM   13  C23 BES A 501      32.091  12.395 194.961  1.00  0.00     0.207 A 
HETATM   14  N24 BES A 501      32.013  13.361 193.762  1.00  0.00    -0.353 N 
HETATM   15  H13 BES A 501      31.119  13.777 193.347  1.00  8.23     0.166 HD
ENDBRANCH   9  10
ENDBRANCH   8   9
BRANCH   8  16
HETATM   16  C5  BES A 501      32.107  16.193 191.608  1.00 10.09     0.192 C 
HETATM   17  O1  BES A 501      32.137  16.485 190.381  1.00  5.58    -0.647 OA
HETATM   18  O4  BES A 501      31.031  16.030 192.261  1.00  5.29    -0.647 OA
ENDBRANCH   8  16
ENDBRANCH   6   8
ENDBRANCH   3   4
BRANCH   3  19
HETATM   19  O5  BES A 501      32.691  18.322 196.295  1.00  8.27    -0.387 OA
HETATM   20  H15 BES A 501      33.221  19.175 195.989  1.00  8.22     0.210 HD
ENDBRANCH   3  19
ENDBRANCH   2   3
ENDBRANCH   1   2
BRANCH   1  21
HETATM   21  N12 BES A 501      30.625  16.120 195.501  1.00  8.22    -0.079 N 
HETATM   22  H14 BES A 501      30.752  15.211 194.953  1.00  8.22     0.274 HD
HETATM   23  H15 BES A 501      30.977  16.942 194.916  1.00  8.22     0.274 HD
HETATM   24  H1  BES A 501      29.587  16.259 195.724  1.00  8.22     0.274 HD
ENDBRANCH   1  21
TORSDOF 9
ENDMDL
MODEL 9
REMARK VINA RESULT:     0.003      8.040     10.360
REMARK INTER + INTRA:          -1.758
REMARK INTER:                   0.000
REMARK INTRA:                  -1.758
REMARK UNBOUND:                -1.762
REMARK  9 active torsions:
REMARK  status: ('A' for Active; 'I' for Inactive)
REMARK    1  A    between atoms: C70_1  and  C1_2 
REMARK    2  A    between atoms: C70_1  and  N12_20 
REMARK    3  A    between atoms: C1_2  and  C2_3 
REMARK    4  A    between atoms: C2_3  and  C3_4 
REMARK    5  A    between atoms: C2_3  and  O5_17 
REMARK       I    between atoms: C3_4  and  N1_6 
REMARK    6  A    between atoms: N1_6  and  C4_7 
REMARK    7  A    between atoms: C4_7  and  C13_8 
REMARK    8  A    between atoms: C4_7  and  C5_10 
REMARK    9  A    between atoms: C13_8  and  C7_9 
ROOT
HETATM    1  C70 BES A 501      40.941  12.187 200.641  1.00  6.08     0.232 C 
ENDROOT
BRANCH   1   2
HETATM    2  C1  BES A 501      42.251  12.520 200.241  1.00  6.71     0.068 C 
BRANCH   2   3
HETATM    3  C2  BES A 501      42.422  13.126 198.883  1.00  9.09     0.205 C 
BRANCH   3   4
HETATM    4  C3  BES A 501      43.146  12.150 198.001  1.00  8.29     0.227 C 
HETATM    5  O3  BES A 501      43.790  12.602 197.080  1.00  7.85    -0.277 OA
HETATM    6  N1  BES A 501      43.050  10.713 198.292  1.00  8.97    -0.246 NA
HETATM    7  H7  BES A 501      42.004  10.484 198.270  1.00  8.27     0.131 HD
BRANCH   6   8
HETATM    8  C4  BES A 501      43.697   9.662 197.506  1.00 10.85     0.169 C 
BRANCH   8   9
HETATM    9  C13 BES A 501      44.819   9.022 198.330  1.00  8.22     0.089 C 
BRANCH   9  10
HETATM   10  C7  BES A 501      44.629   9.323 199.829  1.00 11.21     0.029 A 
HETATM   11  C21 BES A 501      45.621  10.078 200.733  1.00  0.00     0.143 A 
HETATM   12  N22 BES A 501      45.018  10.144 202.148  1.00  0.00    -0.254 N 
HETATM   13  C23 BES A 501      43.654   9.429 202.119  1.00  0.00     0.207 A 
HETATM   14  N24 BES A 501      43.413   8.922 200.685  1.00  0.00    -0.353 N 
HETATM   15  H13 BES A 501      42.553   8.386 200.343  1.00  8.23     0.166 HD
ENDBRANCH   9  10
ENDBRANCH   8   9
BRANCH   8  16
HETATM   16  C5  BES A 501      42.667   8.619 197.217  1.00 10.09     0.192 C 
HETATM   17  O1  BES A 501      42.840   7.832 196.245  1.00  5.58    -0.647 OA
HETATM   18  O4  BES A 501      41.674   8.547 198.005  1.00  5.29    -0.647 OA
ENDBRANCH   8  16
ENDBRANCH   6   8
ENDBRANCH   3   4
BRANCH   3  19
HETATM   19  O5  BES A 501      41.076  13.431 198.294  1.00  8.27    -0.387 OA
HETATM   20  H15 BES A 501      40.663  12.553 197.892  1.00  8.22     0.210 HD
ENDBRANCH   3  19
ENDBRANCH   2   3
ENDBRANCH   1   2
BRANCH   1  21
HETATM   21  N12 BES A 501      40.533  10.871 199.998  1.00  8.22    -0.079 N 
HETATM   22  H14 BES A 501      40.318  10.153 200.761  1.00  8.22     0.274 HD
HETATM   23  H15 BES A 501      41.331  10.511 199.384  1.00  8.22     0.274 HD
HETATM   24  H1  BES A 501      39.661  11.023 199.397  1.00  8.22     0.274 HD
ENDBRANCH   1  21
TORSDOF 9
ENDMDL
