MODEL 1
REMARK VINA RESULT:    -3.841      0.000      0.000
REMARK INTER + INTRA:          -5.627
REMARK INTER:                  -5.301
REMARK INTRA:                  -0.326
REMARK UNBOUND:                -0.326
REMARK  Name = TETCA.pdb
REMARK  10 active torsions:
REMARK  status: ('A' for Active; 'I' for Inactive)
REMARK    1  A    between atoms: O1_1  and  C14_14
REMARK    2  A    between atoms: O2_2  and  C16_16
REMARK    3  A    between atoms: O4_4  and  C19_19
REMARK    4  A    between atoms: O5_5  and  C22_22
REMARK    5  A    between atoms: O7_7  and  C29_29
REMARK    6  A    between atoms: N9_9  and  C15_15
REMARK    7  A    between atoms: N9_9  and  C27_27
REMARK    8  A    between atoms: N9_9  and  C28_28
REMARK    9  A    between atoms: C16_16  and  C25_25
REMARK   10  A    between atoms: C23_23  and  C30_30
REMARK                            x       y       z     vdW  Elec       q    Type
REMARK                         _______ _______ _______ _____ _____    ______ ____
ROOT
ATOM      1  O3  UNK T   1      36.408  16.708 191.754  0.00  0.00    +0.000 OA
ATOM      2  O6  UNK T   1      32.230  14.774 196.387  0.00  0.00    +0.000 OA
ATOM      3  C11 UNK T   1      34.554  14.261 193.675  0.00  0.00    +0.000 C 
ATOM      4  C12 UNK T   1      37.076  14.165 194.047  0.00  0.00    +0.000 C 
ATOM      5  C13 UNK T   1      35.696  13.894 194.671  0.00  0.00    +0.000 C 
ATOM      6  C14 UNK T   1      34.647  15.710 193.125  0.00  0.00    +0.000 C 
ATOM      7  C15 UNK T   1      33.193  14.001 194.342  0.00  0.00    +0.000 C 
ATOM      8  C16 UNK T   1      38.311  13.688 194.867  0.00  0.00    +0.000 C 
ATOM      9  C17 UNK T   1      37.119  15.630 193.738  0.00  0.00    +0.000 C 
ATOM     10  C18 UNK T   1      36.096  16.071 192.755  0.00  0.00    +0.000 C 
ATOM     11  C19 UNK T   1      34.107  16.757 194.082  0.00  0.00    +0.000 C 
ATOM     12  C20 UNK T   1      38.836  14.746 195.836  0.00  0.00    +0.000 A 
ATOM     13  C21 UNK T   1      32.889  15.057 195.386  0.00  0.00    +0.000 C 
ATOM     14  C22 UNK T   1      37.863  16.538 194.384  0.00  0.00    +0.000 C 
ATOM     15  C23 UNK T   1      33.345  16.468 195.157  0.00  0.00    +0.000 C 
ATOM     16  C24 UNK T   1      38.650  16.122 195.567  0.00  0.00    +0.000 A 
ATOM     17  C25 UNK T   1      39.461  13.322 193.908  0.00  0.00    +0.000 C 
ATOM     18  C26 UNK T   1      39.574  14.357 196.971  0.00  0.00    +0.000 A 
ATOM     19  C29 UNK T   1      39.173  17.061 196.473  0.00  0.00    +0.000 A 
ATOM     20  C31 UNK T   1      40.094  15.305 197.848  0.00  0.00    +0.000 A 
ATOM     21  C32 UNK T   1      39.890  16.656 197.601  0.00  0.00    +0.000 A 
ENDROOT
BRANCH  15  24
ATOM     22  O8  UNK T   1      33.734  18.308 196.581  0.00  0.00    +0.000 OA
ATOM     23  N10 UNK T   1      31.581  17.500 196.372  0.00  0.00    +0.000 N 
ATOM     24  C30 UNK T   1      32.927  17.517 196.103  0.00  0.00    +0.000 C 
ATOM     25  H54 UNK T   1      31.137  18.154 197.010  0.00  0.00    +0.000 HD
ATOM     26  H55 UNK T   1      30.974  16.813 195.937  0.00  0.00    +0.000 HD
ENDBRANCH  15  24
BRANCH   7  27
ATOM     27  N9  UNK T   1      32.079  14.021 193.398  0.00  0.00    +0.000 NA
ATOM     28  C27 UNK T   1      32.213  12.934 192.428  0.00  0.00    +0.000 C 
ATOM     29  C28 UNK T   1      30.806  13.918 194.110  0.00  0.00    +0.000 C 
ENDBRANCH   7  27
BRANCH   6  30
ATOM     30  O1  UNK T   1      33.892  15.823 191.918  0.00  0.00    +0.000 OA
ATOM     31  H41 UNK T   1      34.127  16.653 191.469  0.00  0.00    +0.000 HD
ENDBRANCH   6  30
BRANCH   8  32
ATOM     32  O2  UNK T   1      37.964  12.479 195.551  0.00  0.00    +0.000 OA
ATOM     33  H42 UNK T   1      37.677  11.828 194.888  0.00  0.00    +0.000 HD
ENDBRANCH   8  32
BRANCH  11  34
ATOM     34  O4  UNK T   1      34.470  18.048 193.727  0.00  0.00    +0.000 OA
ATOM     35  H50 UNK T   1      35.102  18.021 192.991  0.00  0.00    +0.000 HD
ENDBRANCH  11  34
BRANCH  14  36
ATOM     36  O5  UNK T   1      37.826  17.876 194.042  0.00  0.00    +0.000 OA
ATOM     37  H51 UNK T   1      38.728  18.225 193.969  0.00  0.00    +0.000 HD
ENDBRANCH  14  36
BRANCH  19  38
ATOM     38  O7  UNK T   1      39.045  18.412 196.303  0.00  0.00    +0.000 OA
ATOM     39  H56 UNK T   1      38.108  18.664 196.350  0.00  0.00    +0.000 HD
ENDBRANCH  19  38
TORSDOF 7
REMARK  Name = BCBL.pdb
REMARK  4 active torsions:
REMARK  status: ('A' for Active; 'I' for Inactive)
REMARK    1  A    between atoms: O1_1  and  C6_6
REMARK    2  A    between atoms: O3_3  and  C17_17
REMARK    3  A    between atoms: O4_4  and  C18_18
REMARK    4  A    between atoms: O5_5  and  C21_21
REMARK                            x       y       z     vdW  Elec       q    Type
REMARK                         _______ _______ _______ _____ _____    ______ ____
ROOT
ATOM      1  O2  UNK B   0      37.368  10.943 198.136  0.00  0.00    +0.000 OA
ATOM      2  C6  UNK B   0      35.765  12.468 199.190  0.00  0.00    +0.000 C 
ATOM      3  C7  UNK B   0      36.878  13.105 200.071  0.00  0.00    +0.000 C 
ATOM      4  C8  UNK B   0      35.574  13.375 197.949  0.00  0.00    +0.000 C 
ATOM      5  C9  UNK B   0      36.782  14.553 199.646  0.00  0.00    +0.000 A 
ATOM      6  C10 UNK B   0      36.054  14.695 198.461  0.00  0.00    +0.000 A 
ATOM      7  C11 UNK B   0      36.113  11.034 198.810  0.00  0.00    +0.000 C 
ATOM      8  C12 UNK B   0      38.231  12.477 199.824  0.00  0.00    +0.000 A 
ATOM      9  C13 UNK B   0      38.402  11.463 198.871  0.00  0.00    +0.000 A 
ATOM     10  C14 UNK B   0      37.299  15.668 200.291  0.00  0.00    +0.000 A 
ATOM     11  C15 UNK B   0      35.860  15.940 197.880  0.00  0.00    +0.000 A 
ATOM     12  C16 UNK B   0      39.354  12.897 200.556  0.00  0.00    +0.000 A 
ATOM     13  C17 UNK B   0      37.100  16.927 199.719  0.00  0.00    +0.000 A 
ATOM     14  C18 UNK B   0      36.389  17.061 198.519  0.00  0.00    +0.000 A 
ATOM     15  C19 UNK B   0      39.670  10.936 198.603  0.00  0.00    +0.000 A 
ATOM     16  C20 UNK B   0      40.616  12.355 200.304  0.00  0.00    +0.000 A 
ATOM     17  C21 UNK B   0      40.776  11.382 199.321  0.00  0.00    +0.000 A 
ENDROOT
BRANCH   2  18
ATOM     18  O1  UNK B   0      34.539  12.418 199.929  0.00  0.00    +0.000 OA
ATOM     19  H28 UNK B   0      34.638  11.759 200.637  0.00  0.00    +0.000 HD
ENDBRANCH   2  18
BRANCH  13  20
ATOM     20  O3  UNK B   0      37.608  18.028 200.343  0.00  0.00    +0.000 OA
ATOM     21  H33 UNK B   0      38.575  17.946 200.393  0.00  0.00    +0.000 HD
ENDBRANCH  13  20
BRANCH  14  22
ATOM     22  O4  UNK B   0      36.202  18.292 197.964  0.00  0.00    +0.000 OA
ATOM     23  H34 UNK B   0      36.551  18.287 197.057  0.00  0.00    +0.000 HD
ENDBRANCH  14  22
BRANCH  17  24
ATOM     24  O5  UNK B   0      42.008  10.862 199.070  0.00  0.00    +0.000 OA
ATOM     25  H35 UNK B   0      42.602  11.581 198.791  0.00  0.00    +0.000 HD
ENDBRANCH  17  24
TORSDOF 4
ENDMDL
MODEL 2
REMARK VINA RESULT:    -3.841      4.553      8.944
REMARK INTER + INTRA:          -5.626
REMARK INTER:                  -5.300
REMARK INTRA:                  -0.326
REMARK UNBOUND:                -0.326
REMARK  Name = TETCA.pdb
REMARK  10 active torsions:
REMARK  status: ('A' for Active; 'I' for Inactive)
REMARK    1  A    between atoms: O1_1  and  C14_14
REMARK    2  A    between atoms: O2_2  and  C16_16
REMARK    3  A    between atoms: O4_4  and  C19_19
REMARK    4  A    between atoms: O5_5  and  C22_22
REMARK    5  A    between atoms: O7_7  and  C29_29
REMARK    6  A    between atoms: N9_9  and  C15_15
REMARK    7  A    between atoms: N9_9  and  C27_27
REMARK    8  A    between atoms: N9_9  and  C28_28
REMARK    9  A    between atoms: C16_16  and  C25_25
REMARK   10  A    between atoms: C23_23  and  C30_30
REMARK                            x       y       z     vdW  Elec       q    Type
REMARK                         _______ _______ _______ _____ _____    ______ ____
ROOT
ATOM      1  O3  UNK T   1      35.672  16.454 203.240  0.00  0.00    +0.000 OA
ATOM      2  O6  UNK T   1      36.081  22.891 202.210  0.00  0.00    +0.000 OA
ATOM      3  C11 UNK T   1      37.410  19.617 202.938  0.00  0.00    +0.000 C 
ATOM      4  C12 UNK T   1      37.987  17.945 201.099  0.00  0.00    +0.000 C 
ATOM      5  C13 UNK T   1      37.880  19.436 201.463  0.00  0.00    +0.000 C 
ATOM      6  C14 UNK T   1      36.095  18.862 203.271  0.00  0.00    +0.000 C 
ATOM      7  C15 UNK T   1      37.292  21.117 203.255  0.00  0.00    +0.000 C 
ATOM      8  C16 UNK T   1      38.607  17.614 199.709  0.00  0.00    +0.000 C 
ATOM      9  C17 UNK T   1      36.615  17.369 201.272  0.00  0.00    +0.000 C 
ATOM     10  C18 UNK T   1      36.097  17.449 202.662  0.00  0.00    +0.000 C 
ATOM     11  C19 UNK T   1      34.845  19.593 202.815  0.00  0.00    +0.000 C 
ATOM     12  C20 UNK T   1      37.569  17.541 198.590  0.00  0.00    +0.000 A 
ATOM     13  C21 UNK T   1      36.072  21.718 202.586  0.00  0.00    +0.000 C 
ATOM     14  C22 UNK T   1      35.810  16.971 200.277  0.00  0.00    +0.000 C 
ATOM     15  C23 UNK T   1      34.829  20.890 202.444  0.00  0.00    +0.000 C 
ATOM     16  C24 UNK T   1      36.230  17.186 198.874  0.00  0.00    +0.000 A 
ATOM     17  C25 UNK T   1      39.325  16.252 199.770  0.00  0.00    +0.000 C 
ATOM     18  C26 UNK T   1      37.958  17.757 197.253  0.00  0.00    +0.000 A 
ATOM     19  C29 UNK T   1      35.315  17.103 197.809  0.00  0.00    +0.000 A 
ATOM     20  C31 UNK T   1      37.037  17.658 196.214  0.00  0.00    +0.000 A 
ATOM     21  C32 UNK T   1      35.715  17.335 196.492  0.00  0.00    +0.000 A 
ENDROOT
BRANCH  15  24
ATOM     22  O8  UNK T   1      32.947  21.002 201.027  0.00  0.00    +0.000 OA
ATOM     23  N10 UNK T   1      33.304  22.711 202.537  0.00  0.00    +0.000 N 
ATOM     24  C30 UNK T   1      33.604  21.521 201.922  0.00  0.00    +0.000 C 
ATOM     25  H54 UNK T   1      32.496  23.273 202.286  0.00  0.00    +0.000 HD
ATOM     26  H55 UNK T   1      33.898  23.080 203.273  0.00  0.00    +0.000 HD
ENDBRANCH  15  24
BRANCH   7  27
ATOM     27  N9  UNK T   1      37.157  21.391 204.684  0.00  0.00    +0.000 NA
ATOM     28  C27 UNK T   1      38.362  20.973 205.399  0.00  0.00    +0.000 C 
ATOM     29  C28 UNK T   1      36.897  22.812 204.907  0.00  0.00    +0.000 C 
ENDBRANCH   7  27
BRANCH   6  30
ATOM     30  O1  UNK T   1      35.979  18.683 204.682  0.00  0.00    +0.000 OA
ATOM     31  H41 UNK T   1      36.225  19.508 205.133  0.00  0.00    +0.000 HD
ENDBRANCH   6  30
BRANCH   8  32
ATOM     32  O2  UNK T   1      39.619  18.585 199.419  0.00  0.00    +0.000 OA
ATOM     33  H42 UNK T   1      39.936  18.429 198.513  0.00  0.00    +0.000 HD
ENDBRANCH   8  32
BRANCH  11  34
ATOM     34  O4  UNK T   1      33.715  18.789 202.834  0.00  0.00    +0.000 OA
ATOM     35  H50 UNK T   1      33.218  18.939 203.654  0.00  0.00    +0.000 HD
ENDBRANCH  11  34
BRANCH  14  36
ATOM     36  O5  UNK T   1      34.549  16.467 200.530  0.00  0.00    +0.000 OA
ATOM     37  H51 UNK T   1      34.554  15.959 201.356  0.00  0.00    +0.000 HD
ENDBRANCH  14  36
BRANCH  19  38
ATOM     38  O7  UNK T   1      34.000  16.769 197.981  0.00  0.00    +0.000 OA
ATOM     39  H56 UNK T   1      33.657  16.351 197.174  0.00  0.00    +0.000 HD
ENDBRANCH  19  38
TORSDOF 7
REMARK  Name = BCBL.pdb
REMARK  4 active torsions:
REMARK  status: ('A' for Active; 'I' for Inactive)
REMARK    1  A    between atoms: O1_1  and  C6_6
REMARK    2  A    between atoms: O3_3  and  C17_17
REMARK    3  A    between atoms: O4_4  and  C18_18
REMARK    4  A    between atoms: O5_5  and  C21_21
REMARK                            x       y       z     vdW  Elec       q    Type
REMARK                         _______ _______ _______ _____ _____    ______ ____
ROOT
ATOM      1  O2  UNK B   0      40.654  20.968 197.791  0.00  0.00    +0.000 OA
ATOM      2  C6  UNK B   0      38.704  22.450 197.897  0.00  0.00    +0.000 C 
ATOM      3  C7  UNK B   0      38.210  21.977 196.500  0.00  0.00    +0.000 C 
ATOM      4  C8  UNK B   0      37.943  21.628 198.966  0.00  0.00    +0.000 C 
ATOM      5  C9  UNK B   0      36.840  21.442 196.850  0.00  0.00    +0.000 A 
ATOM      6  C10 UNK B   0      36.699  21.249 198.228  0.00  0.00    +0.000 A 
ATOM      7  C11 UNK B   0      40.216  22.306 198.027  0.00  0.00    +0.000 C 
ATOM      8  C12 UNK B   0      39.134  20.952 195.883  0.00  0.00    +0.000 A 
ATOM      9  C13 UNK B   0      40.274  20.496 196.561  0.00  0.00    +0.000 A 
ATOM     10  C14 UNK B   0      35.786  21.165 195.991  0.00  0.00    +0.000 A 
ATOM     11  C15 UNK B   0      35.525  20.744 198.768  0.00  0.00    +0.000 A 
ATOM     12  C16 UNK B   0      38.871  20.435 194.605  0.00  0.00    +0.000 A 
ATOM     13  C17 UNK B   0      34.596  20.665 196.527  0.00  0.00    +0.000 A 
ATOM     14  C18 UNK B   0      34.468  20.452 197.906  0.00  0.00    +0.000 A 
ATOM     15  C19 UNK B   0      41.085  19.499 196.011  0.00  0.00    +0.000 A 
ATOM     16  C20 UNK B   0      39.694  19.455 194.045  0.00  0.00    +0.000 A 
ATOM     17  C21 UNK B   0      40.795  18.980 194.752  0.00  0.00    +0.000 A 
ENDROOT
BRANCH   2  18
ATOM     18  O1  UNK B   0      38.401  23.839 198.068  0.00  0.00    +0.000 OA
ATOM     19  H28 UNK B   0      38.417  24.263 197.193  0.00  0.00    +0.000 HD
ENDBRANCH   2  18
BRANCH  13  20
ATOM     20  O3  UNK B   0      33.556  20.386 195.689  0.00  0.00    +0.000 OA
ATOM     21  H33 UNK B   0      32.754  20.822 196.024  0.00  0.00    +0.000 HD
ENDBRANCH  13  20
BRANCH  14  22
ATOM     22  O4  UNK B   0      33.306  19.961 198.421  0.00  0.00    +0.000 OA
ATOM     23  H34 UNK B   0      33.477  19.087 198.812  0.00  0.00    +0.000 HD
ENDBRANCH  14  22
BRANCH  17  24
ATOM     24  O5  UNK B   0      41.590  18.018 194.210  0.00  0.00    +0.000 OA
ATOM     25  H35 UNK B   0      41.508  18.051 193.240  0.00  0.00    +0.000 HD
ENDBRANCH  17  24
TORSDOF 4
ENDMDL
MODEL 3
REMARK VINA RESULT:    -3.840      5.054      9.169
REMARK INTER + INTRA:          -5.625
REMARK INTER:                  -5.298
REMARK INTRA:                  -0.328
REMARK UNBOUND:                -0.326
REMARK  Name = TETCA.pdb
REMARK  10 active torsions:
REMARK  status: ('A' for Active; 'I' for Inactive)
REMARK    1  A    between atoms: O1_1  and  C14_14
REMARK    2  A    between atoms: O2_2  and  C16_16
REMARK    3  A    between atoms: O4_4  and  C19_19
REMARK    4  A    between atoms: O5_5  and  C22_22
REMARK    5  A    between atoms: O7_7  and  C29_29
REMARK    6  A    between atoms: N9_9  and  C15_15
REMARK    7  A    between atoms: N9_9  and  C27_27
REMARK    8  A    between atoms: N9_9  and  C28_28
REMARK    9  A    between atoms: C16_16  and  C25_25
REMARK   10  A    between atoms: C23_23  and  C30_30
REMARK                            x       y       z     vdW  Elec       q    Type
REMARK                         _______ _______ _______ _____ _____    ______ ____
ROOT
ATOM      1  O3  UNK T   1      39.338  14.403 203.145  0.00  0.00    +0.000 OA
ATOM      2  O6  UNK T   1      41.539   8.389 201.861  0.00  0.00    +0.000 OA
ATOM      3  C11 UNK T   1      39.054  11.004 201.928  0.00  0.00    +0.000 C 
ATOM      4  C12 UNK T   1      38.892  12.771 200.094  0.00  0.00    +0.000 C 
ATOM      5  C13 UNK T   1      39.290  11.321 200.420  0.00  0.00    +0.000 C 
ATOM      6  C14 UNK T   1      39.745  12.006 202.892  0.00  0.00    +0.000 C 
ATOM      7  C15 UNK T   1      39.486   9.557 202.218  0.00  0.00    +0.000 C 
ATOM      8  C16 UNK T   1      38.917  13.175 198.590  0.00  0.00    +0.000 C 
ATOM      9  C17 UNK T   1      39.761  13.647 200.942  0.00  0.00    +0.000 C 
ATOM     10  C18 UNK T   1      39.573  13.454 202.403  0.00  0.00    +0.000 C 
ATOM     11  C19 UNK T   1      41.224  11.727 203.096  0.00  0.00    +0.000 C 
ATOM     12  C20 UNK T   1      40.269  13.724 198.137  0.00  0.00    +0.000 A 
ATOM     13  C21 UNK T   1      40.996   9.432 202.226  0.00  0.00    +0.000 C 
ATOM     14  C22 UNK T   1      40.760  14.420 200.491  0.00  0.00    +0.000 C 
ATOM     15  C23 UNK T   1      41.824  10.571 202.744  0.00  0.00    +0.000 C 
ATOM     16  C24 UNK T   1      41.130  14.362 199.059  0.00  0.00    +0.000 A 
ATOM     17  C25 UNK T   1      37.858  14.263 198.326  0.00  0.00    +0.000 C 
ATOM     18  C26 UNK T   1      40.635  13.661 196.778  0.00  0.00    +0.000 A 
ATOM     19  C29 UNK T   1      42.353  14.878 198.592  0.00  0.00    +0.000 A 
ATOM     20  C31 UNK T   1      41.845  14.189 196.337  0.00  0.00    +0.000 A 
ATOM     21  C32 UNK T   1      42.705  14.793 197.244  0.00  0.00    +0.000 A 
ENDROOT
BRANCH  15  24
ATOM     22  O8  UNK T   1      44.071  11.223 202.445  0.00  0.00    +0.000 OA
ATOM     23  N10 UNK T   1      43.625   9.234 203.530  0.00  0.00    +0.000 N 
ATOM     24  C30 UNK T   1      43.280  10.393 202.882  0.00  0.00    +0.000 C 
ATOM     25  H54 UNK T   1      44.589   8.962 203.697  0.00  0.00    +0.000 HD
ATOM     26  H55 UNK T   1      42.912   8.594 203.863  0.00  0.00    +0.000 HD
ENDBRANCH  15  24
BRANCH   7  27
ATOM     27  N9  UNK T   1      39.024   9.071 203.516  0.00  0.00    +0.000 NA
ATOM     28  C27 UNK T   1      37.563   9.016 203.551  0.00  0.00    +0.000 C 
ATOM     29  C28 UNK T   1      39.593   7.754 203.798  0.00  0.00    +0.000 C 
ENDBRANCH   7  27
BRANCH   6  30
ATOM     30  O1  UNK T   1      39.131  11.948 204.179  0.00  0.00    +0.000 OA
ATOM     31  H41 UNK T   1      39.011  12.850 204.519  0.00  0.00    +0.000 HD
ENDBRANCH   6  30
BRANCH   8  32
ATOM     32  O2  UNK T   1      38.525  12.041 197.808  0.00  0.00    +0.000 OA
ATOM     33  H42 UNK T   1      39.291  11.758 197.281  0.00  0.00    +0.000 HD
ENDBRANCH   8  32
BRANCH  11  34
ATOM     34  O4  UNK T   1      41.891  12.784 203.696  0.00  0.00    +0.000 OA
ATOM     35  H50 UNK T   1      41.268  13.505 203.880  0.00  0.00    +0.000 HD
ENDBRANCH  11  34
BRANCH  14  36
ATOM     36  O5  UNK T   1      41.524  15.184 201.351  0.00  0.00    +0.000 OA
ATOM     37  H51 UNK T   1      41.503  16.114 201.076  0.00  0.00    +0.000 HD
ENDBRANCH  14  36
BRANCH  19  38
ATOM     38  O7  UNK T   1      43.253  15.510 199.404  0.00  0.00    +0.000 OA
ATOM     39  H56 UNK T   1      42.854  15.675 200.275  0.00  0.00    +0.000 HD
ENDBRANCH  19  38
TORSDOF 7
REMARK  Name = BCBL.pdb
REMARK  4 active torsions:
REMARK  status: ('A' for Active; 'I' for Inactive)
REMARK    1  A    between atoms: O1_1  and  C6_6
REMARK    2  A    between atoms: O3_3  and  C17_17
REMARK    3  A    between atoms: O4_4  and  C18_18
REMARK    4  A    between atoms: O5_5  and  C21_21
REMARK                            x       y       z     vdW  Elec       q    Type
REMARK                         _______ _______ _______ _____ _____    ______ ____
ROOT
ATOM      1  O2  UNK B   0      39.179   9.807 195.813  0.00  0.00    +0.000 OA
ATOM      2  C6  UNK B   0      41.216   8.900 196.830  0.00  0.00    +0.000 C 
ATOM      3  C7  UNK B   0      42.120   9.734 195.876  0.00  0.00    +0.000 C 
ATOM      4  C8  UNK B   0      41.089   9.684 198.159  0.00  0.00    +0.000 C 
ATOM      5  C9  UNK B   0      42.920  10.538 196.875  0.00  0.00    +0.000 A 
ATOM      6  C10 UNK B   0      42.338  10.507 198.147  0.00  0.00    +0.000 A 
ATOM      7  C11 UNK B   0      39.860   8.613 196.196  0.00  0.00    +0.000 C 
ATOM      8  C12 UNK B   0      41.312  10.572 194.912  0.00  0.00    +0.000 A 
ATOM      9  C13 UNK B   0      39.911  10.579 194.948  0.00  0.00    +0.000 A 
ATOM     10  C14 UNK B   0      44.100  11.236 196.661  0.00  0.00    +0.000 A 
ATOM     11  C15 UNK B   0      42.897  11.197 199.212  0.00  0.00    +0.000 A 
ATOM     12  C16 UNK B   0      41.956  11.365 193.948  0.00  0.00    +0.000 A 
ATOM     13  C17 UNK B   0      44.677  11.926 197.730  0.00  0.00    +0.000 A 
ATOM     14  C18 UNK B   0      44.077  11.910 198.996  0.00  0.00    +0.000 A 
ATOM     15  C19 UNK B   0      39.175  11.410 194.096  0.00  0.00    +0.000 A 
ATOM     16  C20 UNK B   0      41.221  12.177 193.082  0.00  0.00    +0.000 A 
ATOM     17  C21 UNK B   0      39.832  12.207 193.163  0.00  0.00    +0.000 A 
ENDROOT
BRANCH   2  18
ATOM     18  O1  UNK B   0      41.833   7.633 197.088  0.00  0.00    +0.000 OA
ATOM     19  H28 UNK B   0      41.767   7.093 196.282  0.00  0.00    +0.000 HD
ENDBRANCH   2  18
BRANCH  13  20
ATOM     20  O3  UNK B   0      45.834  12.618 197.528  0.00  0.00    +0.000 OA
ATOM     21  H33 UNK B   0      46.005  13.183 198.300  0.00  0.00    +0.000 HD
ENDBRANCH  13  20
BRANCH  14  22
ATOM     22  O4  UNK B   0      44.643  12.588 200.034  0.00  0.00    +0.000 OA
ATOM     23  H34 UNK B   0      45.359  13.150 199.692  0.00  0.00    +0.000 HD
ENDBRANCH  14  22
BRANCH  17  24
ATOM     24  O5  UNK B   0      39.117  13.007 192.326  0.00  0.00    +0.000 OA
ATOM     25  H35 UNK B   0      39.221  13.933 192.609  0.00  0.00    +0.000 HD
ENDBRANCH  17  24
TORSDOF 4
ENDMDL
MODEL 4
REMARK VINA RESULT:    -3.837      2.988      7.459
REMARK INTER + INTRA:          -5.620
REMARK INTER:                  -5.300
REMARK INTRA:                  -0.321
REMARK UNBOUND:                -0.326
REMARK  Name = TETCA.pdb
REMARK  10 active torsions:
REMARK  status: ('A' for Active; 'I' for Inactive)
REMARK    1  A    between atoms: O1_1  and  C14_14
REMARK    2  A    between atoms: O2_2  and  C16_16
REMARK    3  A    between atoms: O4_4  and  C19_19
REMARK    4  A    between atoms: O5_5  and  C22_22
REMARK    5  A    between atoms: O7_7  and  C29_29
REMARK    6  A    between atoms: N9_9  and  C15_15
REMARK    7  A    between atoms: N9_9  and  C27_27
REMARK    8  A    between atoms: N9_9  and  C28_28
REMARK    9  A    between atoms: C16_16  and  C25_25
REMARK   10  A    between atoms: C23_23  and  C30_30
REMARK                            x       y       z     vdW  Elec       q    Type
REMARK                         _______ _______ _______ _____ _____    ______ ____
ROOT
ATOM      1  O3  UNK T   1      40.765  14.425 195.799  0.00  0.00    +0.000 OA
ATOM      2  O6  UNK T   1      36.002  10.198 194.347  0.00  0.00    +0.000 OA
ATOM      3  C11 UNK T   1      37.795  12.474 196.497  0.00  0.00    +0.000 C 
ATOM      4  C12 UNK T   1      37.386  14.993 196.452  0.00  0.00    +0.000 C 
ATOM      5  C13 UNK T   1      36.756  13.606 196.231  0.00  0.00    +0.000 C 
ATOM      6  C14 UNK T   1      39.109  12.630 195.685  0.00  0.00    +0.000 C 
ATOM      7  C15 UNK T   1      37.137  11.108 196.242  0.00  0.00    +0.000 C 
ATOM      8  C16 UNK T   1      36.418  16.211 196.386  0.00  0.00    +0.000 C 
ATOM      9  C17 UNK T   1      38.520  15.101 195.479  0.00  0.00    +0.000 C 
ATOM     10  C18 UNK T   1      39.590  14.091 195.684  0.00  0.00    +0.000 C 
ATOM     11  C19 UNK T   1      38.995  12.148 194.250  0.00  0.00    +0.000 C 
ATOM     12  C20 UNK T   1      36.278  16.791 194.979  0.00  0.00    +0.000 A 
ATOM     13  C21 UNK T   1      36.955  10.862 194.758  0.00  0.00    +0.000 C 
ATOM     14  C22 UNK T   1      38.541  15.892 194.397  0.00  0.00    +0.000 C 
ATOM     15  C23 UNK T   1      37.982  11.381 193.796  0.00  0.00    +0.000 C 
ATOM     16  C24 UNK T   1      37.330  16.667 194.043  0.00  0.00    +0.000 A 
ATOM     17  C25 UNK T   1      36.933  17.335 197.306  0.00  0.00    +0.000 C 
ATOM     18  C26 UNK T   1      35.124  17.519 194.630  0.00  0.00    +0.000 A 
ATOM     19  C29 UNK T   1      37.169  17.241 192.769  0.00  0.00    +0.000 A 
ATOM     20  C31 UNK T   1      34.991  18.090 193.367  0.00  0.00    +0.000 A 
ATOM     21  C32 UNK T   1      36.011  17.947 192.435  0.00  0.00    +0.000 A 
ENDROOT
BRANCH  15  24
ATOM     22  O8  UNK T   1      37.960  11.866 191.488  0.00  0.00    +0.000 OA
ATOM     23  N10 UNK T   1      37.680   9.677 192.166  0.00  0.00    +0.000 N 
ATOM     24  C30 UNK T   1      37.877  11.020 192.371  0.00  0.00    +0.000 C 
ATOM     25  H54 UNK T   1      37.580   9.269 191.241  0.00  0.00    +0.000 HD
ATOM     26  H55 UNK T   1      37.622   9.035 192.950  0.00  0.00    +0.000 HD
ENDBRANCH  15  24
BRANCH   7  27
ATOM     27  N9  UNK T   1      37.924   9.989 196.753  0.00  0.00    +0.000 NA
ATOM     28  C27 UNK T   1      38.027  10.061 198.210  0.00  0.00    +0.000 C 
ATOM     29  C28 UNK T   1      37.327   8.719 196.344  0.00  0.00    +0.000 C 
ENDBRANCH   7  27
BRANCH   6  30
ATOM     30  O1  UNK T   1      40.153  11.872 196.296  0.00  0.00    +0.000 OA
ATOM     31  H41 UNK T   1      39.913  10.930 196.289  0.00  0.00    +0.000 HD
ENDBRANCH   6  30
BRANCH   8  32
ATOM     32  O2  UNK T   1      35.149  15.813 196.915  0.00  0.00    +0.000 OA
ATOM     33  H42 UNK T   1      34.761  15.157 196.312  0.00  0.00    +0.000 HD
ENDBRANCH   8  32
BRANCH  11  34
ATOM     34  O4  UNK T   1      40.053  12.567 193.457  0.00  0.00    +0.000 OA
ATOM     35  H50 UNK T   1      39.870  13.453 193.106  0.00  0.00    +0.000 HD
ENDBRANCH  11  34
BRANCH  14  36
ATOM     36  O5  UNK T   1      39.625  15.914 193.542  0.00  0.00    +0.000 OA
ATOM     37  H51 UNK T   1      40.407  15.552 193.989  0.00  0.00    +0.000 HD
ENDBRANCH  14  36
BRANCH  19  38
ATOM     38  O7  UNK T   1      38.127  17.175 191.795  0.00  0.00    +0.000 OA
ATOM     39  H56 UNK T   1      38.985  17.453 192.156  0.00  0.00    +0.000 HD
ENDBRANCH  19  38
TORSDOF 7
REMARK  Name = BCBL.pdb
REMARK  4 active torsions:
REMARK  status: ('A' for Active; 'I' for Inactive)
REMARK    1  A    between atoms: O1_1  and  C6_6
REMARK    2  A    between atoms: O3_3  and  C17_17
REMARK    3  A    between atoms: O4_4  and  C18_18
REMARK    4  A    between atoms: O5_5  and  C21_21
REMARK                            x       y       z     vdW  Elec       q    Type
REMARK                         _______ _______ _______ _____ _____    ______ ____
ROOT
ATOM      1  O2  UNK B   0      32.176  15.168 196.538  0.00  0.00    +0.000 OA
ATOM      2  C6  UNK B   0      32.299  13.646 194.621  0.00  0.00    +0.000 C 
ATOM      3  C7  UNK B   0      31.961  14.794 193.627  0.00  0.00    +0.000 C 
ATOM      4  C8  UNK B   0      33.839  13.487 194.647  0.00  0.00    +0.000 C 
ATOM      5  C9  UNK B   0      33.179  14.762 192.732  0.00  0.00    +0.000 A 
ATOM      6  C10 UNK B   0      34.223  14.031 193.309  0.00  0.00    +0.000 A 
ATOM      7  C11 UNK B   0      31.723  13.924 196.004  0.00  0.00    +0.000 C 
ATOM      8  C12 UNK B   0      31.747  16.115 194.331  0.00  0.00    +0.000 A 
ATOM      9  C13 UNK B   0      31.885  16.231 195.722  0.00  0.00    +0.000 A 
ATOM     10  C14 UNK B   0      33.333  15.334 191.477  0.00  0.00    +0.000 A 
ATOM     11  C15 UNK B   0      35.444  13.891 192.666  0.00  0.00    +0.000 A 
ATOM     12  C16 UNK B   0      31.396  17.261 193.600  0.00  0.00    +0.000 A 
ATOM     13  C17 UNK B   0      34.555  15.189 190.818  0.00  0.00    +0.000 A 
ATOM     14  C18 UNK B   0      35.606  14.476 191.410  0.00  0.00    +0.000 A 
ATOM     15  C19 UNK B   0      31.751  17.471 196.355  0.00  0.00    +0.000 A 
ATOM     16  C20 UNK B   0      31.240  18.495 194.236  0.00  0.00    +0.000 A 
ATOM     17  C21 UNK B   0      31.427  18.602 195.611  0.00  0.00    +0.000 A 
ENDROOT
BRANCH   2  18
ATOM     18  O1  UNK B   0      31.708  12.425 194.161  0.00  0.00    +0.000 OA
ATOM     19  H28 UNK B   0      31.525  12.515 193.210  0.00  0.00    +0.000 HD
ENDBRANCH   2  18
BRANCH  13  20
ATOM     20  O3  UNK B   0      34.717  15.752 189.586  0.00  0.00    +0.000 OA
ATOM     21  H33 UNK B   0      34.134  15.301 188.952  0.00  0.00    +0.000 HD
ENDBRANCH  13  20
BRANCH  14  22
ATOM     22  O4  UNK B   0      36.798  14.341 190.762  0.00  0.00    +0.000 OA
ATOM     23  H34 UNK B   0      37.490  14.133 191.413  0.00  0.00    +0.000 HD
ENDBRANCH  14  22
BRANCH  17  24
ATOM     24  O5  UNK B   0      31.284  19.806 196.227  0.00  0.00    +0.000 OA
ATOM     25  H35 UNK B   0      32.106  20.316 196.118  0.00  0.00    +0.000 HD
ENDBRANCH  17  24
TORSDOF 4
ENDMDL
MODEL 5
REMARK VINA RESULT:    -3.836      5.721      9.800
REMARK INTER + INTRA:          -5.620
REMARK INTER:                  -5.294
REMARK INTRA:                  -0.326
REMARK UNBOUND:                -0.326
REMARK  Name = TETCA.pdb
REMARK  10 active torsions:
REMARK  status: ('A' for Active; 'I' for Inactive)
REMARK    1  A    between atoms: O1_1  and  C14_14
REMARK    2  A    between atoms: O2_2  and  C16_16
REMARK    3  A    between atoms: O4_4  and  C19_19
REMARK    4  A    between atoms: O5_5  and  C22_22
REMARK    5  A    between atoms: O7_7  and  C29_29
REMARK    6  A    between atoms: N9_9  and  C15_15
REMARK    7  A    between atoms: N9_9  and  C27_27
REMARK    8  A    between atoms: N9_9  and  C28_28
REMARK    9  A    between atoms: C16_16  and  C25_25
REMARK   10  A    between atoms: C23_23  and  C30_30
REMARK                            x       y       z     vdW  Elec       q    Type
REMARK                         _______ _______ _______ _____ _____    ______ ____
ROOT
ATOM      1  O3  UNK T   1      40.217  22.984 197.345  0.00  0.00    +0.000 OA
ATOM      2  O6  UNK T   1      43.039  17.100 197.623  0.00  0.00    +0.000 OA
ATOM      3  C11 UNK T   1      40.235  19.364 197.439  0.00  0.00    +0.000 C 
ATOM      4  C12 UNK T   1      39.414  20.332 195.226  0.00  0.00    +0.000 C 
ATOM      5  C13 UNK T   1      40.099  19.132 195.903  0.00  0.00    +0.000 C 
ATOM      6  C14 UNK T   1      40.942  20.696 197.808  0.00  0.00    +0.000 C 
ATOM      7  C15 UNK T   1      40.945  18.156 198.075  0.00  0.00    +0.000 C 
ATOM      8  C16 UNK T   1      39.060  20.166 193.718  0.00  0.00    +0.000 C 
ATOM      9  C17 UNK T   1      40.289  21.519 195.487  0.00  0.00    +0.000 C 
ATOM     10  C18 UNK T   1      40.442  21.852 196.927  0.00  0.00    +0.000 C 
ATOM     11  C19 UNK T   1      42.456  20.624 197.715  0.00  0.00    +0.000 C 
ATOM     12  C20 UNK T   1      40.183  20.616 192.784  0.00  0.00    +0.000 A 
ATOM     13  C21 UNK T   1      42.424  18.160 197.744  0.00  0.00    +0.000 C 
ATOM     14  C22 UNK T   1      41.034  22.151 194.569  0.00  0.00    +0.000 C 
ATOM     15  C23 UNK T   1      43.148  19.469 197.628  0.00  0.00    +0.000 C 
ATOM     16  C24 UNK T   1      41.103  21.609 193.193  0.00  0.00    +0.000 A 
ATOM     17  C25 UNK T   1      37.809  21.001 193.382  0.00  0.00    +0.000 C 
ATOM     18  C26 UNK T   1      40.263  20.096 191.478  0.00  0.00    +0.000 A 
ATOM     19  C29 UNK T   1      42.103  22.013 192.290  0.00  0.00    +0.000 A 
ATOM     20  C31 UNK T   1      41.254  20.520 190.596  0.00  0.00    +0.000 A 
ATOM     21  C32 UNK T   1      42.176  21.475 191.004  0.00  0.00    +0.000 A 
ENDROOT
BRANCH  15  24
ATOM     22  O8  UNK T   1      45.149  20.138 196.574  0.00  0.00    +0.000 OA
ATOM     23  N10 UNK T   1      45.264  18.650 198.336  0.00  0.00    +0.000 N 
ATOM     24  C30 UNK T   1      44.610  19.465 197.447  0.00  0.00    +0.000 C 
ATOM     25  H54 UNK T   1      46.273  18.532 198.337  0.00  0.00    +0.000 HD
ATOM     26  H55 UNK T   1      44.748  18.122 199.032  0.00  0.00    +0.000 HD
ENDBRANCH  15  24
BRANCH   7  27
ATOM     27  N9  UNK T   1      40.848  18.138 199.533  0.00  0.00    +0.000 NA
ATOM     28  C27 UNK T   1      39.454  17.990 199.949  0.00  0.00    +0.000 C 
ATOM     29  C28 UNK T   1      41.665  17.058 200.083  0.00  0.00    +0.000 C 
ENDBRANCH   7  27
BRANCH   6  30
ATOM     30  O1  UNK T   1      40.627  21.059 199.152  0.00  0.00    +0.000 OA
ATOM     31  H41 UNK T   1      41.079  20.454 199.764  0.00  0.00    +0.000 HD
ENDBRANCH   6  30
BRANCH   8  32
ATOM     32  O2  UNK T   1      38.701  18.800 193.482  0.00  0.00    +0.000 OA
ATOM     33  H42 UNK T   1      39.326  18.235 193.968  0.00  0.00    +0.000 HD
ENDBRANCH   8  32
BRANCH  11  34
ATOM     34  O4  UNK T   1      43.055  21.875 197.742  0.00  0.00    +0.000 OA
ATOM     35  H50 UNK T   1      43.200  22.150 198.661  0.00  0.00    +0.000 HD
ENDBRANCH  11  34
BRANCH  14  36
ATOM     36  O5  UNK T   1      41.828  23.230 194.905  0.00  0.00    +0.000 OA
ATOM     37  H51 UNK T   1      41.902  23.300 195.870  0.00  0.00    +0.000 HD
ENDBRANCH  14  36
BRANCH  19  38
ATOM     38  O7  UNK T   1      43.038  22.963 192.592  0.00  0.00    +0.000 OA
ATOM     39  H56 UNK T   1      43.356  23.385 191.776  0.00  0.00    +0.000 HD
ENDBRANCH  19  38
TORSDOF 7
REMARK  Name = BCBL.pdb
REMARK  4 active torsions:
REMARK  status: ('A' for Active; 'I' for Inactive)
REMARK    1  A    between atoms: O1_1  and  C6_6
REMARK    2  A    between atoms: O3_3  and  C17_17
REMARK    3  A    between atoms: O4_4  and  C18_18
REMARK    4  A    between atoms: O5_5  and  C21_21
REMARK                            x       y       z     vdW  Elec       q    Type
REMARK                         _______ _______ _______ _____ _____    ______ ____
ROOT
ATOM      1  O2  UNK B   0      39.358  16.058 192.239  0.00  0.00    +0.000 OA
ATOM      2  C6  UNK B   0      41.678  15.763 192.969  0.00  0.00    +0.000 C 
ATOM      3  C7  UNK B   0      42.222  16.261 191.598  0.00  0.00    +0.000 C 
ATOM      4  C8  UNK B   0      41.689  16.968 193.942  0.00  0.00    +0.000 C 
ATOM      5  C9  UNK B   0      43.059  17.441 192.037  0.00  0.00    +0.000 A 
ATOM      6  C10 UNK B   0      42.756  17.830 193.345  0.00  0.00    +0.000 A 
ATOM      7  C11 UNK B   0      40.291  15.151 192.824  0.00  0.00    +0.000 C 
ATOM      8  C12 UNK B   0      41.111  16.615 190.637  0.00  0.00    +0.000 A 
ATOM      9  C13 UNK B   0      39.763  16.516 191.012  0.00  0.00    +0.000 A 
ATOM     10  C14 UNK B   0      44.040  18.108 191.316  0.00  0.00    +0.000 A 
ATOM     11  C15 UNK B   0      43.393  18.908 193.942  0.00  0.00    +0.000 A 
ATOM     12  C16 UNK B   0      41.408  17.048 189.335  0.00  0.00    +0.000 A 
ATOM     13  C17 UNK B   0      44.694  19.188 191.912  0.00  0.00    +0.000 A 
ATOM     14  C18 UNK B   0      44.370  19.589 193.215  0.00  0.00    +0.000 A 
ATOM     15  C19 UNK B   0      38.745  16.910 190.138  0.00  0.00    +0.000 A 
ATOM     16  C20 UNK B   0      40.390  17.421 188.454  0.00  0.00    +0.000 A 
ATOM     17  C21 UNK B   0      39.060  17.361 188.859  0.00  0.00    +0.000 A 
ENDROOT
BRANCH   2  18
ATOM     18  O1  UNK B   0      42.536  14.737 193.481  0.00  0.00    +0.000 OA
ATOM     19  H28 UNK B   0      42.227  13.883 193.135  0.00  0.00    +0.000 HD
ENDBRANCH   2  18
BRANCH  13  20
ATOM     20  O3  UNK B   0      45.656  19.853 191.210  0.00  0.00    +0.000 OA
ATOM     21  H33 UNK B   0      46.530  19.611 191.562  0.00  0.00    +0.000 HD
ENDBRANCH  13  20
BRANCH  14  22
ATOM     22  O4  UNK B   0      45.010  20.646 193.790  0.00  0.00    +0.000 OA
ATOM     23  H34 UNK B   0      44.510  21.459 193.601  0.00  0.00    +0.000 HD
ENDBRANCH  14  22
BRANCH  17  24
ATOM     24  O5  UNK B   0      38.069  17.734 188.003  0.00  0.00    +0.000 OA
ATOM     25  H35 UNK B   0      38.158  18.684 187.813  0.00  0.00    +0.000 HD
ENDBRANCH  17  24
TORSDOF 4
ENDMDL
MODEL 6
REMARK VINA RESULT:    -3.836      3.987      7.919
REMARK INTER + INTRA:          -5.619
REMARK INTER:                  -5.293
REMARK INTRA:                  -0.326
REMARK UNBOUND:                -0.326
REMARK  Name = TETCA.pdb
REMARK  10 active torsions:
REMARK  status: ('A' for Active; 'I' for Inactive)
REMARK    1  A    between atoms: O1_1  and  C14_14
REMARK    2  A    between atoms: O2_2  and  C16_16
REMARK    3  A    between atoms: O4_4  and  C19_19
REMARK    4  A    between atoms: O5_5  and  C22_22
REMARK    5  A    between atoms: O7_7  and  C29_29
REMARK    6  A    between atoms: N9_9  and  C15_15
REMARK    7  A    between atoms: N9_9  and  C27_27
REMARK    8  A    between atoms: N9_9  and  C28_28
REMARK    9  A    between atoms: C16_16  and  C25_25
REMARK   10  A    between atoms: C23_23  and  C30_30
REMARK                            x       y       z     vdW  Elec       q    Type
REMARK                         _______ _______ _______ _____ _____    ______ ____
ROOT
ATOM      1  O3  UNK T   1      36.877  15.923 198.849  0.00  0.00    +0.000 OA
ATOM      2  O6  UNK T   1      43.034  18.076 198.494  0.00  0.00    +0.000 OA
ATOM      3  C11 UNK T   1      40.464  15.663 199.269  0.00  0.00    +0.000 C 
ATOM      4  C12 UNK T   1      39.516  14.077 197.510  0.00  0.00    +0.000 C 
ATOM      5  C13 UNK T   1      40.754  14.875 197.955  0.00  0.00    +0.000 C 
ATOM      6  C14 UNK T   1      39.209  16.573 199.187  0.00  0.00    +0.000 C 
ATOM      7  C15 UNK T   1      41.715  16.466 199.667  0.00  0.00    +0.000 C 
ATOM      8  C16 UNK T   1      39.713  13.110 196.305  0.00  0.00    +0.000 C 
ATOM      9  C17 UNK T   1      38.430  15.080 197.274  0.00  0.00    +0.000 C 
ATOM     10  C18 UNK T   1      38.046  15.852 198.484  0.00  0.00    +0.000 C 
ATOM     11  C19 UNK T   1      39.465  17.895 198.485  0.00  0.00    +0.000 C 
ATOM     12  C20 UNK T   1      39.445  13.771 194.953  0.00  0.00    +0.000 A 
ATOM     13  C21 UNK T   1      41.903  17.664 198.757  0.00  0.00    +0.000 C 
ATOM     14  C22 UNK T   1      37.937  15.424 196.076  0.00  0.00    +0.000 C 
ATOM     15  C23 UNK T   1      40.696  18.383 198.231  0.00  0.00    +0.000 C 
ATOM     16  C24 UNK T   1      38.550  14.861 194.852  0.00  0.00    +0.000 A 
ATOM     17  C25 UNK T   1      38.753  11.912 196.437  0.00  0.00    +0.000 C 
ATOM     18  C26 UNK T   1      40.036  13.250 193.785  0.00  0.00    +0.000 A 
ATOM     19  C29 UNK T   1      38.313  15.421 193.583  0.00  0.00    +0.000 A 
ATOM     20  C31 UNK T   1      39.776  13.812 192.539  0.00  0.00    +0.000 A 
ATOM     21  C32 UNK T   1      38.919  14.900 192.438  0.00  0.00    +0.000 A 
ENDROOT
BRANCH  15  24
ATOM     22  O8  UNK T   1      40.322  19.808 196.389  0.00  0.00    +0.000 OA
ATOM     23  N10 UNK T   1      41.727  20.520 198.077  0.00  0.00    +0.000 N 
ATOM     24  C30 UNK T   1      40.883  19.628 197.464  0.00  0.00    +0.000 C 
ATOM     25  H54 UNK T   1      41.964  21.421 197.673  0.00  0.00    +0.000 HD
ATOM     26  H55 UNK T   1      42.156  20.299 198.969  0.00  0.00    +0.000 HD
ENDBRANCH  15  24
BRANCH   7  27
ATOM     27  N9  UNK T   1      41.649  16.988 201.030  0.00  0.00    +0.000 NA
ATOM     28  C27 UNK T   1      41.608  15.891 201.995  0.00  0.00    +0.000 C 
ATOM     29  C28 UNK T   1      42.791  17.862 201.295  0.00  0.00    +0.000 C 
ENDBRANCH   7  27
BRANCH   6  30
ATOM     30  O1  UNK T   1      38.745  16.884 200.500  0.00  0.00    +0.000 OA
ATOM     31  H41 UNK T   1      39.089  17.754 200.766  0.00  0.00    +0.000 HD
ENDBRANCH   6  30
BRANCH   8  32
ATOM     32  O2  UNK T   1      41.037  12.568 196.368  0.00  0.00    +0.000 OA
ATOM     33  H42 UNK T   1      41.630  13.258 196.709  0.00  0.00    +0.000 HD
ENDBRANCH   8  32
BRANCH  11  34
ATOM     34  O4  UNK T   1      38.294  18.557 198.145  0.00  0.00    +0.000 OA
ATOM     35  H50 UNK T   1      38.068  18.371 197.219  0.00  0.00    +0.000 HD
ENDBRANCH  11  34
BRANCH  14  36
ATOM     36  O5  UNK T   1      36.944  16.376 195.951  0.00  0.00    +0.000 OA
ATOM     37  H51 UNK T   1      37.039  17.047 196.646  0.00  0.00    +0.000 HD
ENDBRANCH  14  36
BRANCH  19  38
ATOM     38  O7  UNK T   1      37.467  16.476 193.381  0.00  0.00    +0.000 OA
ATOM     39  H56 UNK T   1      37.597  17.142 194.077  0.00  0.00    +0.000 HD
ENDBRANCH  19  38
TORSDOF 7
REMARK  Name = BCBL.pdb
REMARK  4 active torsions:
REMARK  status: ('A' for Active; 'I' for Inactive)
REMARK    1  A    between atoms: O1_1  and  C6_6
REMARK    2  A    between atoms: O3_3  and  C17_17
REMARK    3  A    between atoms: O4_4  and  C18_18
REMARK    4  A    between atoms: O5_5  and  C21_21
REMARK                            x       y       z     vdW  Elec       q    Type
REMARK                         _______ _______ _______ _____ _____    ______ ____
ROOT
ATOM      1  O2  UNK B   0      43.888  12.334 195.267  0.00  0.00    +0.000 OA
ATOM      2  C6  UNK B   0      44.444  14.704 194.990  0.00  0.00    +0.000 C 
ATOM      3  C7  UNK B   0      44.082  14.661 193.478  0.00  0.00    +0.000 C 
ATOM      4  C8  UNK B   0      43.208  15.243 195.752  0.00  0.00    +0.000 C 
ATOM      5  C9  UNK B   0      42.999  15.715 193.415  0.00  0.00    +0.000 A 
ATOM      6  C10 UNK B   0      42.517  16.034 194.688  0.00  0.00    +0.000 A 
ATOM      7  C11 UNK B   0      44.880  13.334 195.494  0.00  0.00    +0.000 C 
ATOM      8  C12 UNK B   0      43.632  13.287 193.037  0.00  0.00    +0.000 A 
ATOM      9  C13 UNK B   0      43.541  12.223 193.945  0.00  0.00    +0.000 A 
ATOM     10  C14 UNK B   0      42.496  16.357 192.292  0.00  0.00    +0.000 A 
ATOM     11  C15 UNK B   0      41.503  16.966 194.862  0.00  0.00    +0.000 A 
ATOM     12  C16 UNK B   0      43.298  13.045 191.695  0.00  0.00    +0.000 A 
ATOM     13  C17 UNK B   0      41.483  17.304 192.458  0.00  0.00    +0.000 A 
ATOM     14  C18 UNK B   0      40.986  17.603 193.734  0.00  0.00    +0.000 A 
ATOM     15  C19 UNK B   0      43.059  10.974 193.541  0.00  0.00    +0.000 A 
ATOM     16  C20 UNK B   0      42.839  11.791 191.286  0.00  0.00    +0.000 A 
ATOM     17  C21 UNK B   0      42.710  10.759 192.211  0.00  0.00    +0.000 A 
ENDROOT
BRANCH   2  18
ATOM     18  O1  UNK B   0      45.547  15.595 195.193  0.00  0.00    +0.000 OA
ATOM     19  H28 UNK B   0      46.067  15.627 194.372  0.00  0.00    +0.000 HD
ENDBRANCH   2  18
BRANCH  13  20
ATOM     20  O3  UNK B   0      40.978  17.937 191.360  0.00  0.00    +0.000 OA
ATOM     21  H33 UNK B   0      41.639  17.909 190.647  0.00  0.00    +0.000 HD
ENDBRANCH  13  20
BRANCH  14  22
ATOM     22  O4  UNK B   0      39.994  18.525 193.888  0.00  0.00    +0.000 OA
ATOM     23  H34 UNK B   0      40.385  19.415 193.878  0.00  0.00    +0.000 HD
ENDBRANCH  14  22
BRANCH  17  24
ATOM     24  O5  UNK B   0      42.252   9.540 191.813  0.00  0.00    +0.000 OA
ATOM     25  H35 UNK B   0      42.991   9.036 191.430  0.00  0.00    +0.000 HD
ENDBRANCH  17  24
TORSDOF 4
ENDMDL
MODEL 7
REMARK VINA RESULT:    -3.833      3.604      6.696
REMARK INTER + INTRA:          -5.615
REMARK INTER:                  -5.294
REMARK INTRA:                  -0.321
REMARK UNBOUND:                -0.326
REMARK  Name = TETCA.pdb
REMARK  10 active torsions:
REMARK  status: ('A' for Active; 'I' for Inactive)
REMARK    1  A    between atoms: O1_1  and  C14_14
REMARK    2  A    between atoms: O2_2  and  C16_16
REMARK    3  A    between atoms: O4_4  and  C19_19
REMARK    4  A    between atoms: O5_5  and  C22_22
REMARK    5  A    between atoms: O7_7  and  C29_29
REMARK    6  A    between atoms: N9_9  and  C15_15
REMARK    7  A    between atoms: N9_9  and  C27_27
REMARK    8  A    between atoms: N9_9  and  C28_28
REMARK    9  A    between atoms: C16_16  and  C25_25
REMARK   10  A    between atoms: C23_23  and  C30_30
REMARK                            x       y       z     vdW  Elec       q    Type
REMARK                         _______ _______ _______ _____ _____    ______ ____
ROOT
ATOM      1  O3  UNK T   1      39.223  17.439 191.958  0.00  0.00    +0.000 OA
ATOM      2  O6  UNK T   1      40.225  15.625 198.152  0.00  0.00    +0.000 OA
ATOM      3  C11 UNK T   1      38.197  16.555 195.317  0.00  0.00    +0.000 C 
ATOM      4  C12 UNK T   1      37.483  14.865 193.544  0.00  0.00    +0.000 C 
ATOM      5  C13 UNK T   1      37.850  15.063 195.025  0.00  0.00    +0.000 C 
ATOM      6  C14 UNK T   1      39.293  17.136 194.383  0.00  0.00    +0.000 C 
ATOM      7  C15 UNK T   1      38.583  16.709 196.798  0.00  0.00    +0.000 C 
ATOM      8  C16 UNK T   1      36.952  13.456 193.146  0.00  0.00    +0.000 C 
ATOM      9  C17 UNK T   1      38.686  15.274 192.752  0.00  0.00    +0.000 C 
ATOM     10  C18 UNK T   1      39.067  16.700 192.926  0.00  0.00    +0.000 C 
ATOM     11  C19 UNK T   1      40.704  16.759 194.798  0.00  0.00    +0.000 C 
ATOM     12  C20 UNK T   1      38.061  12.492 192.726  0.00  0.00    +0.000 A 
ATOM     13  C21 UNK T   1      39.959  16.133 197.062  0.00  0.00    +0.000 C 
ATOM     14  C22 UNK T   1      39.490  14.442 192.076  0.00  0.00    +0.000 C 
ATOM     15  C23 UNK T   1      41.018  16.245 196.005  0.00  0.00    +0.000 C 
ATOM     16  C24 UNK T   1      39.265  12.982 192.169  0.00  0.00    +0.000 A 
ATOM     17  C25 UNK T   1      35.971  13.584 191.964  0.00  0.00    +0.000 C 
ATOM     18  C26 UNK T   1      37.860  11.101 192.824  0.00  0.00    +0.000 A 
ATOM     19  C29 UNK T   1      40.247  12.057 191.771  0.00  0.00    +0.000 A 
ATOM     20  C31 UNK T   1      38.841  10.204 192.411  0.00  0.00    +0.000 A 
ATOM     21  C32 UNK T   1      40.036  10.682 191.889  0.00  0.00    +0.000 A 
ENDROOT
BRANCH  15  24
ATOM     22  O8  UNK T   1      43.016  15.071 195.566  0.00  0.00    +0.000 OA
ATOM     23  N10 UNK T   1      42.861  16.317 197.504  0.00  0.00    +0.000 N 
ATOM     24  C30 UNK T   1      42.391  15.811 196.318  0.00  0.00    +0.000 C 
ATOM     25  H54 UNK T   1      43.787  16.107 197.864  0.00  0.00    +0.000 HD
ATOM     26  H55 UNK T   1      42.284  16.926 198.074  0.00  0.00    +0.000 HD
ENDBRANCH  15  24
BRANCH   7  27
ATOM     27  N9  UNK T   1      38.625  18.101 197.237  0.00  0.00    +0.000 NA
ATOM     28  C27 UNK T   1      37.298  18.706 197.144  0.00  0.00    +0.000 C 
ATOM     29  C28 UNK T   1      39.133  18.187 198.606  0.00  0.00    +0.000 C 
ENDBRANCH   7  27
BRANCH   6  30
ATOM     30  O1  UNK T   1      39.228  18.562 194.383  0.00  0.00    +0.000 OA
ATOM     31  H41 UNK T   1      39.528  18.898 195.244  0.00  0.00    +0.000 HD
ENDBRANCH   6  30
BRANCH   8  32
ATOM     32  O2  UNK T   1      36.190  12.930 194.239  0.00  0.00    +0.000 OA
ATOM     33  H42 UNK T   1      35.353  12.585 193.885  0.00  0.00    +0.000 HD
ENDBRANCH   8  32
BRANCH  11  34
ATOM     34  O4  UNK T   1      41.640  17.013 193.807  0.00  0.00    +0.000 OA
ATOM     35  H50 UNK T   1      41.884  16.184 193.365  0.00  0.00    +0.000 HD
ENDBRANCH  11  34
BRANCH  14  36
ATOM     36  O5  UNK T   1      40.592  14.908 191.386  0.00  0.00    +0.000 OA
ATOM     37  H51 UNK T   1      41.237  15.284 192.005  0.00  0.00    +0.000 HD
ENDBRANCH  14  36
BRANCH  19  38
ATOM     38  O7  UNK T   1      41.443  12.431 191.224  0.00  0.00    +0.000 OA
ATOM     39  H56 UNK T   1      41.983  12.888 191.890  0.00  0.00    +0.000 HD
ENDBRANCH  19  38
TORSDOF 7
REMARK  Name = BCBL.pdb
REMARK  4 active torsions:
REMARK  status: ('A' for Active; 'I' for Inactive)
REMARK    1  A    between atoms: O1_1  and  C6_6
REMARK    2  A    between atoms: O3_3  and  C17_17
REMARK    3  A    between atoms: O4_4  and  C18_18
REMARK    4  A    between atoms: O5_5  and  C21_21
REMARK                            x       y       z     vdW  Elec       q    Type
REMARK                         _______ _______ _______ _____ _____    ______ ____
ROOT
ATOM      1  O2  UNK B   0      35.824  10.922 196.527  0.00  0.00    +0.000 OA
ATOM      2  C6  UNK B   0      38.011  11.100 197.618  0.00  0.00    +0.000 C 
ATOM      3  C7  UNK B   0      38.538   9.840 196.873  0.00  0.00    +0.000 C 
ATOM      4  C8  UNK B   0      38.480  12.344 196.823  0.00  0.00    +0.000 C 
ATOM      5  C9  UNK B   0      39.730  10.418 196.145  0.00  0.00    +0.000 A 
ATOM      6  C10 UNK B   0      39.690  11.816 196.120  0.00  0.00    +0.000 A 
ATOM      7  C11 UNK B   0      36.497  11.055 197.779  0.00  0.00    +0.000 C 
ATOM      8  C12 UNK B   0      37.492   9.235 195.965  0.00  0.00    +0.000 A 
ATOM      9  C13 UNK B   0      36.222   9.812 195.828  0.00  0.00    +0.000 A 
ATOM     10  C14 UNK B   0      40.787   9.735 195.560  0.00  0.00    +0.000 A 
ATOM     11  C15 UNK B   0      40.677  12.553 195.483  0.00  0.00    +0.000 A 
ATOM     12  C16 UNK B   0      37.773   8.067 195.237  0.00  0.00    +0.000 A 
ATOM     13  C17 UNK B   0      41.791  10.470 194.925  0.00  0.00    +0.000 A 
ATOM     14  C18 UNK B   0      41.735  11.869 194.883  0.00  0.00    +0.000 A 
ATOM     15  C19 UNK B   0      35.286   9.283 194.934  0.00  0.00    +0.000 A 
ATOM     16  C20 UNK B   0      36.830   7.525 194.361  0.00  0.00    +0.000 A 
ATOM     17  C21 UNK B   0      35.590   8.138 194.202  0.00  0.00    +0.000 A 
ENDROOT
BRANCH   2  18
ATOM     18  O1  UNK B   0      38.570  11.146 198.936  0.00  0.00    +0.000 OA
ATOM     19  H28 UNK B   0      37.877  10.891 199.569  0.00  0.00    +0.000 HD
ENDBRANCH   2  18
BRANCH  13  20
ATOM     20  O3  UNK B   0      42.832   9.808 194.343  0.00  0.00    +0.000 OA
ATOM     21  H33 UNK B   0      42.514   8.953 194.004  0.00  0.00    +0.000 HD
ENDBRANCH  13  20
BRANCH  14  22
ATOM     22  O4  UNK B   0      42.716  12.580 194.259  0.00  0.00    +0.000 OA
ATOM     23  H34 UNK B   0      42.328  13.067 193.512  0.00  0.00    +0.000 HD
ENDBRANCH  14  22
BRANCH  17  24
ATOM     24  O5  UNK B   0      34.676   7.616 193.341  0.00  0.00    +0.000 OA
ATOM     25  H35 UNK B   0      34.433   8.296 192.688  0.00  0.00    +0.000 HD
ENDBRANCH  17  24
TORSDOF 4
ENDMDL
MODEL 8
REMARK VINA RESULT:    -3.833      3.611      7.451
REMARK INTER + INTRA:          -5.615
REMARK INTER:                  -5.292
REMARK INTRA:                  -0.323
REMARK UNBOUND:                -0.326
REMARK  Name = TETCA.pdb
REMARK  10 active torsions:
REMARK  status: ('A' for Active; 'I' for Inactive)
REMARK    1  A    between atoms: O1_1  and  C14_14
REMARK    2  A    between atoms: O2_2  and  C16_16
REMARK    3  A    between atoms: O4_4  and  C19_19
REMARK    4  A    between atoms: O5_5  and  C22_22
REMARK    5  A    between atoms: O7_7  and  C29_29
REMARK    6  A    between atoms: N9_9  and  C15_15
REMARK    7  A    between atoms: N9_9  and  C27_27
REMARK    8  A    between atoms: N9_9  and  C28_28
REMARK    9  A    between atoms: C16_16  and  C25_25
REMARK   10  A    between atoms: C23_23  and  C30_30
REMARK                            x       y       z     vdW  Elec       q    Type
REMARK                         _______ _______ _______ _____ _____    ______ ____
ROOT
ATOM      1  O3  UNK T   1      39.303  18.448 189.975  0.00  0.00    +0.000 OA
ATOM      2  O6  UNK T   1      41.148  15.085 195.262  0.00  0.00    +0.000 OA
ATOM      3  C11 UNK T   1      40.445  18.091 193.393  0.00  0.00    +0.000 C 
ATOM      4  C12 UNK T   1      38.087  19.044 193.189  0.00  0.00    +0.000 C 
ATOM      5  C13 UNK T   1      39.051  18.237 194.076  0.00  0.00    +0.000 C 
ATOM      6  C14 UNK T   1      40.378  17.503 191.958  0.00  0.00    +0.000 C 
ATOM      7  C15 UNK T   1      41.371  17.259 194.297  0.00  0.00    +0.000 C 
ATOM      8  C16 UNK T   1      36.711  19.411 193.819  0.00  0.00    +0.000 C 
ATOM      9  C17 UNK T   1      37.950  18.278 191.909  0.00  0.00    +0.000 C 
ATOM     10  C18 UNK T   1      39.222  18.127 191.157  0.00  0.00    +0.000 C 
ATOM     11  C19 UNK T   1      40.238  15.992 191.928  0.00  0.00    +0.000 C 
ATOM     12  C20 UNK T   1      35.634  18.355 193.572  0.00  0.00    +0.000 A 
ATOM     13  C21 UNK T   1      40.984  15.794 194.268  0.00  0.00    +0.000 C 
ATOM     14  C22 UNK T   1      36.855  17.614 191.515  0.00  0.00    +0.000 C 
ATOM     15  C23 UNK T   1      40.459  15.198 192.996  0.00  0.00    +0.000 C 
ATOM     16  C24 UNK T   1      35.694  17.523 192.430  0.00  0.00    +0.000 A 
ATOM     17  C25 UNK T   1      36.206  20.741 193.226  0.00  0.00    +0.000 C 
ATOM     18  C26 UNK T   1      34.534  18.253 194.445  0.00  0.00    +0.000 A 
ATOM     19  C29 UNK T   1      34.667  16.583 192.227  0.00  0.00    +0.000 A 
ATOM     20  C31 UNK T   1      33.522  17.325 194.217  0.00  0.00    +0.000 A 
ATOM     21  C32 UNK T   1      33.591  16.487 193.112  0.00  0.00    +0.000 A 
ENDROOT
BRANCH  15  24
ATOM     22  O8  UNK T   1      39.165  13.289 192.500  0.00  0.00    +0.000 OA
ATOM     23  N10 UNK T   1      41.273  13.000 193.395  0.00  0.00    +0.000 N 
ATOM     24  C30 UNK T   1      40.218  13.745 192.932  0.00  0.00    +0.000 C 
ATOM     25  H54 UNK T   1      41.261  11.985 193.424  0.00  0.00    +0.000 HD
ATOM     26  H55 UNK T   1      42.116  13.451 193.738  0.00  0.00    +0.000 HD
ENDBRANCH  15  24
BRANCH   7  27
ATOM     27  N9  UNK T   1      42.773  17.325 193.894  0.00  0.00    +0.000 NA
ATOM     28  C27 UNK T   1      43.282  18.688 194.036  0.00  0.00    +0.000 C 
ATOM     29  C28 UNK T   1      43.574  16.394 194.688  0.00  0.00    +0.000 C 
ENDBRANCH   7  27
BRANCH   6  30
ATOM     30  O1  UNK T   1      41.571  17.824 191.243  0.00  0.00    +0.000 OA
ATOM     31  H41 UNK T   1      42.163  18.336 191.818  0.00  0.00    +0.000 HD
ENDBRANCH   6  30
BRANCH   8  32
ATOM     32  O2  UNK T   1      36.899  19.646 195.219  0.00  0.00    +0.000 OA
ATOM     33  H42 UNK T   1      36.388  20.437 195.464  0.00  0.00    +0.000 HD
ENDBRANCH   8  32
BRANCH  11  34
ATOM     34  O4  UNK T   1      39.873  15.511 190.679  0.00  0.00    +0.000 OA
ATOM     35  H50 UNK T   1      40.485  15.846 190.005  0.00  0.00    +0.000 HD
ENDBRANCH  11  34
BRANCH  14  36
ATOM     36  O5  UNK T   1      36.825  16.917 190.323  0.00  0.00    +0.000 OA
ATOM     37  H51 UNK T   1      36.123  16.247 190.348  0.00  0.00    +0.000 HD
ENDBRANCH  14  36
BRANCH  19  38
ATOM     38  O7  UNK T   1      34.635  15.734 191.156  0.00  0.00    +0.000 OA
ATOM     39  H56 UNK T   1      34.047  16.090 190.470  0.00  0.00    +0.000 HD
ENDBRANCH  19  38
TORSDOF 7
REMARK  Name = BCBL.pdb
REMARK  4 active torsions:
REMARK  status: ('A' for Active; 'I' for Inactive)
REMARK    1  A    between atoms: O1_1  and  C6_6
REMARK    2  A    between atoms: O3_3  and  C17_17
REMARK    3  A    between atoms: O4_4  and  C18_18
REMARK    4  A    between atoms: O5_5  and  C21_21
REMARK                            x       y       z     vdW  Elec       q    Type
REMARK                         _______ _______ _______ _____ _____    ______ ____
ROOT
ATOM      1  O2  UNK B   0      36.472  18.760 198.139  0.00  0.00    +0.000 OA
ATOM      2  C6  UNK B   0      37.150  16.408 198.011  0.00  0.00    +0.000 C 
ATOM      3  C7  UNK B   0      35.671  15.940 197.896  0.00  0.00    +0.000 C 
ATOM      4  C8  UNK B   0      37.728  16.491 196.577  0.00  0.00    +0.000 C 
ATOM      5  C9  UNK B   0      35.707  15.208 196.573  0.00  0.00    +0.000 A 
ATOM      6  C10 UNK B   0      36.858  15.521 195.843  0.00  0.00    +0.000 A 
ATOM      7  C11 UNK B   0      37.253  17.735 198.753  0.00  0.00    +0.000 C 
ATOM      8  C12 UNK B   0      34.700  17.098 197.934  0.00  0.00    +0.000 A 
ATOM      9  C13 UNK B   0      35.148  18.423 198.031  0.00  0.00    +0.000 A 
ATOM     10  C14 UNK B   0      34.779  14.308 196.069  0.00  0.00    +0.000 A 
ATOM     11  C15 UNK B   0      37.085  14.976 194.587  0.00  0.00    +0.000 A 
ATOM     12  C16 UNK B   0      33.316  16.867 197.880  0.00  0.00    +0.000 A 
ATOM     13  C17 UNK B   0      35.004  13.746 194.810  0.00  0.00    +0.000 A 
ATOM     14  C18 UNK B   0      36.147  14.081 194.072  0.00  0.00    +0.000 A 
ATOM     15  C19 UNK B   0      34.245  19.490 197.998  0.00  0.00    +0.000 A 
ATOM     16  C20 UNK B   0      32.412  17.932 197.870  0.00  0.00    +0.000 A 
ATOM     17  C21 UNK B   0      32.877  19.243 197.919  0.00  0.00    +0.000 A 
ENDROOT
BRANCH   2  18
ATOM     18  O1  UNK B   0      37.899  15.449 198.766  0.00  0.00    +0.000 OA
ATOM     19  H28 UNK B   0      37.988  15.780 199.675  0.00  0.00    +0.000 HD
ENDBRANCH   2  18
BRANCH  13  20
ATOM     20  O3  UNK B   0      34.095  12.864 194.304  0.00  0.00    +0.000 OA
ATOM     21  H33 UNK B   0      34.123  12.902 193.333  0.00  0.00    +0.000 HD
ENDBRANCH  13  20
BRANCH  14  22
ATOM     22  O4  UNK B   0      36.359  13.532 192.843  0.00  0.00    +0.000 OA
ATOM     23  H34 UNK B   0      36.914  14.133 192.318  0.00  0.00    +0.000 HD
ENDBRANCH  14  22
BRANCH  17  24
ATOM     24  O5  UNK B   0      31.996  20.280 197.899  0.00  0.00    +0.000 OA
ATOM     25  H35 UNK B   0      31.826  20.567 198.813  0.00  0.00    +0.000 HD
ENDBRANCH  17  24
TORSDOF 4
ENDMDL
MODEL 9
REMARK VINA RESULT:    -3.832      5.001      9.038
REMARK INTER + INTRA:          -5.614
REMARK INTER:                  -5.293
REMARK INTRA:                  -0.321
REMARK UNBOUND:                -0.326
REMARK  Name = TETCA.pdb
REMARK  10 active torsions:
REMARK  status: ('A' for Active; 'I' for Inactive)
REMARK    1  A    between atoms: O1_1  and  C14_14
REMARK    2  A    between atoms: O2_2  and  C16_16
REMARK    3  A    between atoms: O4_4  and  C19_19
REMARK    4  A    between atoms: O5_5  and  C22_22
REMARK    5  A    between atoms: O7_7  and  C29_29
REMARK    6  A    between atoms: N9_9  and  C15_15
REMARK    7  A    between atoms: N9_9  and  C27_27
REMARK    8  A    between atoms: N9_9  and  C28_28
REMARK    9  A    between atoms: C16_16  and  C25_25
REMARK   10  A    between atoms: C23_23  and  C30_30
REMARK                            x       y       z     vdW  Elec       q    Type
REMARK                         _______ _______ _______ _____ _____    ______ ____
ROOT
ATOM      1  O3  UNK T   1      39.199   9.407 196.913  0.00  0.00    +0.000 OA
ATOM      2  O6  UNK T   1      43.601  11.206 192.435  0.00  0.00    +0.000 OA
ATOM      3  C11 UNK T   1      40.360  11.252 194.021  0.00  0.00    +0.000 C 
ATOM      4  C12 UNK T   1      39.860  12.721 196.047  0.00  0.00    +0.000 C 
ATOM      5  C13 UNK T   1      40.700  12.580 194.765  0.00  0.00    +0.000 C 
ATOM      6  C14 UNK T   1      40.481   9.988 194.914  0.00  0.00    +0.000 C 
ATOM      7  C15 UNK T   1      41.236  11.136 192.762  0.00  0.00    +0.000 C 
ATOM      8  C16 UNK T   1      39.974  14.078 196.802  0.00  0.00    +0.000 C 
ATOM      9  C17 UNK T   1      40.208  11.548 196.911  0.00  0.00    +0.000 C 
ATOM     10  C18 UNK T   1      39.875  10.232 196.307  0.00  0.00    +0.000 C 
ATOM     11  C19 UNK T   1      41.908   9.496 195.078  0.00  0.00    +0.000 C 
ATOM     12  C20 UNK T   1      41.088  14.094 197.847  0.00  0.00    +0.000 A 
ATOM     13  C21 UNK T   1      42.667  10.796 193.126  0.00  0.00    +0.000 C 
ATOM     14  C22 UNK T   1      40.917  11.604 198.047  0.00  0.00    +0.000 C 
ATOM     15  C23 UNK T   1      42.934   9.900 194.300  0.00  0.00    +0.000 C 
ATOM     16  C24 UNK T   1      41.503  12.895 198.473  0.00  0.00    +0.000 A 
ATOM     17  C25 UNK T   1      38.648  14.382 197.528  0.00  0.00    +0.000 C 
ATOM     18  C26 UNK T   1      41.661  15.317 198.248  0.00  0.00    +0.000 A 
ATOM     19  C29 UNK T   1      42.514  12.960 199.449  0.00  0.00    +0.000 A 
ATOM     20  C31 UNK T   1      42.651  15.358 199.226  0.00  0.00    +0.000 A 
ATOM     21  C32 UNK T   1      43.080  14.181 199.823  0.00  0.00    +0.000 A 
ENDROOT
BRANCH  15  24
ATOM     22  O8  UNK T   1      44.810   9.542 195.683  0.00  0.00    +0.000 OA
ATOM     23  N10 UNK T   1      44.948   8.966 193.451  0.00  0.00    +0.000 N 
ATOM     24  C30 UNK T   1      44.315   9.459 194.564  0.00  0.00    +0.000 C 
ATOM     25  H54 UNK T   1      45.906   8.628 193.466  0.00  0.00    +0.000 HD
ATOM     26  H55 UNK T   1      44.472   8.929 192.556  0.00  0.00    +0.000 HD
ENDBRANCH  15  24
BRANCH   7  27
ATOM     27  N9  UNK T   1      40.783  10.093 191.845  0.00  0.00    +0.000 NA
ATOM     28  C27 UNK T   1      39.451  10.407 191.332  0.00  0.00    +0.000 C 
ATOM     29  C28 UNK T   1      41.732   9.937 190.744  0.00  0.00    +0.000 C 
ENDBRANCH   7  27
BRANCH   6  30
ATOM     30  O1  UNK T   1      39.735   8.913 194.342  0.00  0.00    +0.000 OA
ATOM     31  H41 UNK T   1      40.306   8.130 194.268  0.00  0.00    +0.000 HD
ENDBRANCH   6  30
BRANCH   8  32
ATOM     32  O2  UNK T   1      40.147  15.123 195.838  0.00  0.00    +0.000 OA
ATOM     33  H42 UNK T   1      40.152  14.720 194.953  0.00  0.00    +0.000 HD
ENDBRANCH   8  32
BRANCH  11  34
ATOM     34  O4  UNK T   1      42.044   8.574 196.105  0.00  0.00    +0.000 OA
ATOM     35  H50 UNK T   1      42.395   9.013 196.896  0.00  0.00    +0.000 HD
ENDBRANCH  11  34
BRANCH  14  36
ATOM     36  O5  UNK T   1      41.207  10.465 198.772  0.00  0.00    +0.000 OA
ATOM     37  H51 UNK T   1      40.776   9.696 198.368  0.00  0.00    +0.000 HD
ENDBRANCH  14  36
BRANCH  19  38
ATOM     38  O7  UNK T   1      42.983  11.859 200.109  0.00  0.00    +0.000 OA
ATOM     39  H56 UNK T   1      43.778  11.520 199.663  0.00  0.00    +0.000 HD
ENDBRANCH  19  38
TORSDOF 7
REMARK  Name = BCBL.pdb
REMARK  4 active torsions:
REMARK  status: ('A' for Active; 'I' for Inactive)
REMARK    1  A    between atoms: O1_1  and  C6_6
REMARK    2  A    between atoms: O3_3  and  C17_17
REMARK    3  A    between atoms: O4_4  and  C18_18
REMARK    4  A    between atoms: O5_5  and  C21_21
REMARK                            x       y       z     vdW  Elec       q    Type
REMARK                         _______ _______ _______ _____ _____    ______ ____
ROOT
ATOM      1  O2  UNK B   0      41.943  17.249 194.522  0.00  0.00    +0.000 OA
ATOM      2  C6  UNK B   0      43.968  15.939 194.092  0.00  0.00    +0.000 C 
ATOM      3  C7  UNK B   0      44.653  16.487 195.378  0.00  0.00    +0.000 C 
ATOM      4  C8  UNK B   0      43.343  14.567 194.442  0.00  0.00    +0.000 C 
ATOM      5  C9  UNK B   0      44.924  15.200 196.124  0.00  0.00    +0.000 A 
ATOM      6  C10 UNK B   0      44.189  14.133 195.596  0.00  0.00    +0.000 A 
ATOM      7  C11 UNK B   0      42.937  16.923 193.552  0.00  0.00    +0.000 C 
ATOM      8  C12 UNK B   0      43.769  17.459 196.125  0.00  0.00    +0.000 A 
ATOM      9  C13 UNK B   0      42.476  17.765 195.675  0.00  0.00    +0.000 A 
ATOM     10  C14 UNK B   0      45.787  14.998 197.192  0.00  0.00    +0.000 A 
ATOM     11  C15 UNK B   0      44.271  12.862 196.144  0.00  0.00    +0.000 A 
ATOM     12  C16 UNK B   0      44.231  18.087 197.293  0.00  0.00    +0.000 A 
ATOM     13  C17 UNK B   0      45.884  13.718 197.744  0.00  0.00    +0.000 A 
ATOM     14  C18 UNK B   0      45.128  12.658 197.226  0.00  0.00    +0.000 A 
ATOM     15  C19 UNK B   0      41.643  18.614 196.410  0.00  0.00    +0.000 A 
ATOM     16  C20 UNK B   0      43.407  18.953 198.015  0.00  0.00    +0.000 A 
ATOM     17  C21 UNK B   0      42.110  19.208 197.579  0.00  0.00    +0.000 A 
ENDROOT
BRANCH   2  18
ATOM     18  O1  UNK B   0      44.952  15.761 193.065  0.00  0.00    +0.000 OA
ATOM     19  H28 UNK B   0      45.815  15.629 193.492  0.00  0.00    +0.000 HD
ENDBRANCH   2  18
BRANCH  13  20
ATOM     20  O3  UNK B   0      46.726  13.511 198.797  0.00  0.00    +0.000 OA
ATOM     21  H33 UNK B   0      46.707  14.292 199.375  0.00  0.00    +0.000 HD
ENDBRANCH  13  20
BRANCH  14  22
ATOM     22  O4  UNK B   0      45.225  11.413 197.772  0.00  0.00    +0.000 OA
ATOM     23  H34 UNK B   0      44.503  10.859 197.428  0.00  0.00    +0.000 HD
ENDBRANCH  14  22
BRANCH  17  24
ATOM     24  O5  UNK B   0      41.304  20.044 198.289  0.00  0.00    +0.000 OA
ATOM     25  H35 UNK B   0      40.998  20.759 197.703  0.00  0.00    +0.000 HD
ENDBRANCH  17  24
TORSDOF 4
ENDMDL
