MODEL 1
REMARK VINA RESULT:     0.000      0.000      0.000
REMARK INTER + INTRA:          -2.166
REMARK INTER:                   0.000
REMARK INTRA:                  -2.166
REMARK UNBOUND:                -2.166
REMARK  10 active torsions:
REMARK  status: ('A' for Active; 'I' for Inactive)
REMARK    1  A    between atoms: O1_1  and  C12_12 
REMARK    2  A    between atoms: O2_2  and  C13_13 
REMARK    3  A    between atoms: O3_3  and  C18_18 
REMARK    4  A    between atoms: O4_4  and  C19_19 
REMARK    5  A    between atoms: C7_7  and  C16_16 
REMARK    6  A    between atoms: C8_8  and  C17_17 
REMARK    7  A    between atoms: C9_9  and  C21_21 
REMARK    8  A    between atoms: C9_9  and  C20_20 
REMARK    9  A    between atoms: C20_20  and  C24_24 
REMARK   10  A    between atoms: C21_21  and  C25_25 
ROOT
HETATM    1  O1          0      36.784  14.922 194.452  1.00  0.00    -0.353 OA
HETATM    2  C26         0      36.729  16.294 194.846  1.00  0.00     0.210 C 
ENDROOT
BRANCH   1   3
HETATM    3  C12         0      38.102  14.514 194.153  1.00  0.00     0.102 A 
HETATM    4  C18         0      38.660  13.574 194.911  1.00  0.00     0.099 A 
HETATM    5  C22         0      40.033  13.127 194.626  1.00  0.00     0.040 A 
HETATM    6  C14         0      40.727  13.656 193.609  1.00  0.00     0.014 A 
HETATM    7  C7          0      40.129  14.701 192.752  1.00  0.00    -0.033 A 
HETATM    8  C10         0      38.876  15.107 193.014  1.00  0.00     0.051 A 
BRANCH   4   9
HETATM    9  O3          0      37.929  13.022 195.976  1.00  0.00    -0.358 OA
HETATM   10  H40         0      37.361  13.716 196.396  1.00  0.00     0.217 HD
ENDBRANCH   4   9
BRANCH   7  11
HETATM   11  C16         0      40.913  15.317 191.584  1.00  0.00     0.015 C 
HETATM   12  C24         0      40.389  15.542 190.357  1.00  0.00     0.051 C 
BRANCH  12  13
HETATM   13  C20         0      41.231  16.164 189.223  1.00  0.00     0.156 C 
HETATM   14  O5          0      41.370  15.534 188.168  1.00  0.00    -0.293 OA
BRANCH  13  15
HETATM   15  C9          0      41.914  17.580 189.384  1.00  0.00     0.165 C 
BRANCH  15  16
HETATM   16  C21         0      40.962  18.731 189.902  1.00  0.00     0.156 C 
HETATM   17  O6          0      40.393  19.467 189.087  1.00  0.00    -0.293 OA
BRANCH  16  18
HETATM   18  C25         0      40.723  18.962 191.408  1.00  0.00     0.051 C 
HETATM   19  C17         0      39.514  18.736 191.973  1.00  0.00     0.015 C 
BRANCH  19  20
HETATM   20  C8          0      39.211  18.946 193.465  1.00  0.00    -0.033 A 
HETATM   21  C15         0      38.143  19.866 193.907  1.00  0.00     0.014 A 
HETATM   22  C23         0      37.889  20.039 195.211  1.00  0.00     0.040 A 
HETATM   23  C19         0      38.666  19.319 196.231  1.00  0.00     0.099 A 
HETATM   24  C13         0      39.633  18.486 195.855  1.00  0.00     0.102 A 
HETATM   25  C11         0      39.921  18.289 194.397  1.00  0.00     0.051 A 
BRANCH  23  26
HETATM   26  O4          0      38.403  19.499 197.599  1.00  0.00    -0.358 OA
HETATM   27  H41         0      38.625  20.425 197.870  1.00  0.00     0.217 HD
ENDBRANCH  23  26
BRANCH  24  28
HETATM   28  O2          0      40.362  17.809 196.858  1.00  0.00    -0.353 OA
HETATM   29  C27         0      40.439  16.405 196.601  1.00  0.00     0.210 C 
ENDBRANCH  24  28
ENDBRANCH  19  20
ENDBRANCH  16  18
ENDBRANCH  15  16
ENDBRANCH  13  15
ENDBRANCH  12  13
ENDBRANCH   7  11
ENDBRANCH   1   3
TORSDOF 10
ENDMDL
MODEL 2
REMARK VINA RESULT:     0.000      6.916     10.627
REMARK INTER + INTRA:          -2.165
REMARK INTER:                   0.000
REMARK INTRA:                  -2.165
REMARK UNBOUND:                -2.166
REMARK  10 active torsions:
REMARK  status: ('A' for Active; 'I' for Inactive)
REMARK    1  A    between atoms: O1_1  and  C12_12 
REMARK    2  A    between atoms: O2_2  and  C13_13 
REMARK    3  A    between atoms: O3_3  and  C18_18 
REMARK    4  A    between atoms: O4_4  and  C19_19 
REMARK    5  A    between atoms: C7_7  and  C16_16 
REMARK    6  A    between atoms: C8_8  and  C17_17 
REMARK    7  A    between atoms: C9_9  and  C21_21 
REMARK    8  A    between atoms: C9_9  and  C20_20 
REMARK    9  A    between atoms: C20_20  and  C24_24 
REMARK   10  A    between atoms: C21_21  and  C25_25 
ROOT
HETATM    1  O1          0      38.430  15.274 199.498  1.00  0.00    -0.353 OA
HETATM    2  C26         0      38.343  15.802 200.823  1.00  0.00     0.210 C 
ENDROOT
BRANCH   1   3
HETATM    3  C12         0      37.155  15.103 198.917  1.00  0.00     0.102 A 
HETATM    4  C18         0      36.849  15.821 197.840  1.00  0.00     0.099 A 
HETATM    5  C22         0      35.528  15.667 197.211  1.00  0.00     0.040 A 
HETATM    6  C14         0      34.629  14.808 197.709  1.00  0.00     0.014 A 
HETATM    7  C7          0      34.944  13.998 198.904  1.00  0.00    -0.033 A 
HETATM    8  C10         0      36.151  14.141 199.477  1.00  0.00     0.051 A 
BRANCH   4   9
HETATM    9  O3          0      37.794  16.722 197.319  1.00  0.00    -0.358 OA
HETATM   10  H40         0      37.336  17.460 196.843  1.00  0.00     0.217 HD
ENDBRANCH   4   9
BRANCH   7  11
HETATM   11  C16         0      33.924  13.009 199.488  1.00  0.00     0.015 C 
HETATM   12  C24         0      34.231  11.755 199.891  1.00  0.00     0.051 C 
BRANCH  12  13
HETATM   13  C20         0      33.158  10.809 200.469  1.00  0.00     0.156 C 
HETATM   14  O5          0      32.957   9.723 199.913  1.00  0.00    -0.293 OA
BRANCH  13  15
HETATM   15  C9          0      32.315  11.199 201.748  1.00  0.00     0.165 C 
BRANCH  15  16
HETATM   16  C21         0      33.164  11.710 202.981  1.00  0.00     0.156 C 
HETATM   17  O6          0      33.512  10.911 203.858  1.00  0.00    -0.293 OA
BRANCH  16  18
HETATM   18  C25         0      33.571  13.192 203.120  1.00  0.00     0.051 C 
HETATM   19  C17         0      34.864  13.579 203.030  1.00  0.00     0.015 C 
BRANCH  19  20
HETATM   20  C8          0      35.335  15.036 203.159  1.00  0.00    -0.033 A 
HETATM   21  C15         0      36.301  15.439 204.202  1.00  0.00     0.014 A 
HETATM   22  C23         0      36.705  16.712 204.303  1.00  0.00     0.040 A 
HETATM   23  C19         0      36.194  17.738 203.380  1.00  0.00     0.099 A 
HETATM   24  C13         0      35.322  17.398 202.434  1.00  0.00     0.102 A 
HETATM   25  C11         0      34.870  15.973 202.317  1.00  0.00     0.051 A 
BRANCH  23  26
HETATM   26  O4          0      36.614  19.075 203.484  1.00  0.00    -0.358 OA
HETATM   27  H41         0      37.599  19.129 203.409  1.00  0.00     0.217 HD
ENDBRANCH  23  26
BRANCH  24  28
HETATM   28  O2          0      34.851  18.405 201.563  1.00  0.00    -0.353 OA
HETATM   29  C27         0      34.903  17.991 200.196  1.00  0.00     0.210 C 
ENDBRANCH  24  28
ENDBRANCH  19  20
ENDBRANCH  16  18
ENDBRANCH  15  16
ENDBRANCH  13  15
ENDBRANCH  12  13
ENDBRANCH   7  11
ENDBRANCH   1   3
TORSDOF 10
ENDMDL
MODEL 3
REMARK VINA RESULT:     0.000      3.606      6.728
REMARK INTER + INTRA:          -2.165
REMARK INTER:                   0.000
REMARK INTRA:                  -2.165
REMARK UNBOUND:                -2.166
REMARK  10 active torsions:
REMARK  status: ('A' for Active; 'I' for Inactive)
REMARK    1  A    between atoms: O1_1  and  C12_12 
REMARK    2  A    between atoms: O2_2  and  C13_13 
REMARK    3  A    between atoms: O3_3  and  C18_18 
REMARK    4  A    between atoms: O4_4  and  C19_19 
REMARK    5  A    between atoms: C7_7  and  C16_16 
REMARK    6  A    between atoms: C8_8  and  C17_17 
REMARK    7  A    between atoms: C9_9  and  C21_21 
REMARK    8  A    between atoms: C9_9  and  C20_20 
REMARK    9  A    between atoms: C20_20  and  C24_24 
REMARK   10  A    between atoms: C21_21  and  C25_25 
ROOT
HETATM    1  O1          0      38.161  19.744 199.003  1.00  0.00    -0.353 OA
HETATM    2  C26         0      37.485  18.962 198.016  1.00  0.00     0.210 C 
ENDROOT
BRANCH   1   3
HETATM    3  C12         0      39.520  19.940 198.676  1.00  0.00     0.102 A 
HETATM    4  C18         0      40.014  21.173 198.739  1.00  0.00     0.099 A 
HETATM    5  C22         0      41.427  21.411 198.403  1.00  0.00     0.040 A 
HETATM    6  C14         0      42.222  20.399 198.036  1.00  0.00     0.014 A 
HETATM    7  C7          0      41.698  19.019 197.959  1.00  0.00    -0.033 A 
HETATM    8  C10         0      40.408  18.804 198.265  1.00  0.00     0.051 A 
BRANCH   4   9
HETATM    9  O3          0      39.176  22.234 199.124  1.00  0.00    -0.358 OA
HETATM   10  H40         0      38.316  22.185 198.635  1.00  0.00     0.217 HD
ENDBRANCH   4   9
BRANCH   7  11
HETATM   11  C16         0      42.599  17.847 197.539  1.00  0.00     0.015 C 
HETATM   12  C24         0      42.828  16.757 198.306  1.00  0.00     0.051 C 
BRANCH  12  13
HETATM   13  C20         0      43.744  15.613 197.826  1.00  0.00     0.156 C 
HETATM   14  O5          0      44.955  15.832 197.695  1.00  0.00    -0.293 OA
BRANCH  13  15
HETATM   15  C9          0      43.171  14.177 197.499  1.00  0.00     0.165 C 
BRANCH  15  16
HETATM   16  C21         0      42.620  13.992 196.028  1.00  0.00     0.156 C 
HETATM   17  O6          0      42.989  13.023 195.354  1.00  0.00    -0.293 OA
BRANCH  16  18
HETATM   18  C25         0      41.627  14.996 195.408  1.00  0.00     0.051 C 
HETATM   19  C17         0      40.433  15.259 195.989  1.00  0.00     0.015 C 
BRANCH  19  20
HETATM   20  C8          0      39.402  16.247 195.423  1.00  0.00    -0.033 A 
HETATM   21  C15         0      37.965  15.907 195.370  1.00  0.00     0.014 A 
HETATM   22  C23         0      37.076  16.778 194.875  1.00  0.00     0.040 A 
HETATM   23  C19         0      37.509  18.091 194.372  1.00  0.00     0.099 A 
HETATM   24  C13         0      38.798  18.418 194.409  1.00  0.00     0.102 A 
HETATM   25  C11         0      39.796  17.446 194.963  1.00  0.00     0.051 A 
BRANCH  23  26
HETATM   26  O4          0      36.579  19.006 193.851  1.00  0.00    -0.358 OA
HETATM   27  H41         0      36.590  19.842 194.381  1.00  0.00     0.217 HD
ENDBRANCH  23  26
BRANCH  24  28
HETATM   28  O2          0      39.182  19.685 193.919  1.00  0.00    -0.353 OA
HETATM   29  C27         0      39.758  20.498 194.945  1.00  0.00     0.210 C 
ENDBRANCH  24  28
ENDBRANCH  19  20
ENDBRANCH  16  18
ENDBRANCH  15  16
ENDBRANCH  13  15
ENDBRANCH  12  13
ENDBRANCH   7  11
ENDBRANCH   1   3
TORSDOF 10
ENDMDL
MODEL 4
REMARK VINA RESULT:     0.000      4.944      8.704
REMARK INTER + INTRA:          -2.165
REMARK INTER:                   0.000
REMARK INTRA:                  -2.165
REMARK UNBOUND:                -2.166
REMARK  10 active torsions:
REMARK  status: ('A' for Active; 'I' for Inactive)
REMARK    1  A    between atoms: O1_1  and  C12_12 
REMARK    2  A    between atoms: O2_2  and  C13_13 
REMARK    3  A    between atoms: O3_3  and  C18_18 
REMARK    4  A    between atoms: O4_4  and  C19_19 
REMARK    5  A    between atoms: C7_7  and  C16_16 
REMARK    6  A    between atoms: C8_8  and  C17_17 
REMARK    7  A    between atoms: C9_9  and  C21_21 
REMARK    8  A    between atoms: C9_9  and  C20_20 
REMARK    9  A    between atoms: C20_20  and  C24_24 
REMARK   10  A    between atoms: C21_21  and  C25_25 
ROOT
HETATM    1  O1          0      33.220  10.066 192.832  1.00  0.00    -0.353 OA
HETATM    2  C26         0      34.622  10.341 192.794  1.00  0.00     0.210 C 
ENDROOT
BRANCH   1   3
HETATM    3  C12         0      32.453  11.251 192.841  1.00  0.00     0.102 A 
HETATM    4  C18         0      31.427  11.347 192.000  1.00  0.00     0.099 A 
HETATM    5  C22         0      30.609  12.570 191.985  1.00  0.00     0.040 A 
HETATM    6  C14         0      30.884  13.587 192.810  1.00  0.00     0.014 A 
HETATM    7  C7          0      32.017  13.506 193.755  1.00  0.00    -0.033 A 
HETATM    8  C10         0      32.763  12.389 193.767  1.00  0.00     0.051 A 
BRANCH   4   9
HETATM    9  O3          0      31.142  10.277 191.135  1.00  0.00    -0.358 OA
HETATM   10  H40         0      30.177  10.057 191.171  1.00  0.00     0.217 HD
ENDBRANCH   4   9
BRANCH   7  11
HETATM   11  C16         0      32.345  14.665 194.708  1.00  0.00     0.015 C 
HETATM   12  C24         0      32.374  14.551 196.055  1.00  0.00     0.051 C 
BRANCH  12  13
HETATM   13  C20         0      32.711  15.756 196.958  1.00  0.00     0.156 C 
HETATM   14  O5          0      31.916  16.702 197.013  1.00  0.00    -0.293 OA
BRANCH  13  15
HETATM   15  C9          0      34.043  15.805 197.807  1.00  0.00     0.165 C 
BRANCH  15  16
HETATM   16  C21         0      35.308  16.365 197.041  1.00  0.00     0.156 C 
HETATM   17  O6          0      35.998  17.248 197.564  1.00  0.00    -0.293 OA
BRANCH  16  18
HETATM   18  C25         0      35.707  15.835 195.649  1.00  0.00     0.051 C 
HETATM   19  C17         0      35.981  14.526 195.444  1.00  0.00     0.015 C 
BRANCH  19  20
HETATM   20  C8          0      36.382  13.935 194.084  1.00  0.00    -0.033 A 
HETATM   21  C15         0      37.485  12.959 193.969  1.00  0.00     0.014 A 
HETATM   22  C23         0      37.825  12.451 192.776  1.00  0.00     0.040 A 
HETATM   23  C19         0      37.109  12.854 191.556  1.00  0.00     0.099 A 
HETATM   24  C13         0      36.113  13.732 191.636  1.00  0.00     0.102 A 
HETATM   25  C11         0      35.730  14.303 192.969  1.00  0.00     0.051 A 
BRANCH  23  26
HETATM   26  O4          0      37.463  12.324 190.304  1.00  0.00    -0.358 OA
HETATM   27  H41         0      36.740  11.740 189.964  1.00  0.00     0.217 HD
ENDBRANCH  23  26
BRANCH  24  28
HETATM   28  O2          0      35.445  14.099 190.447  1.00  0.00    -0.353 OA
HETATM   29  C27         0      34.074  13.695 190.462  1.00  0.00     0.210 C 
ENDBRANCH  24  28
ENDBRANCH  19  20
ENDBRANCH  16  18
ENDBRANCH  15  16
ENDBRANCH  13  15
ENDBRANCH  12  13
ENDBRANCH   7  11
ENDBRANCH   1   3
TORSDOF 10
ENDMDL
MODEL 5
REMARK VINA RESULT:     0.001      3.584      6.775
REMARK INTER + INTRA:          -2.165
REMARK INTER:                   0.000
REMARK INTRA:                  -2.165
REMARK UNBOUND:                -2.166
REMARK  10 active torsions:
REMARK  status: ('A' for Active; 'I' for Inactive)
REMARK    1  A    between atoms: O1_1  and  C12_12 
REMARK    2  A    between atoms: O2_2  and  C13_13 
REMARK    3  A    between atoms: O3_3  and  C18_18 
REMARK    4  A    between atoms: O4_4  and  C19_19 
REMARK    5  A    between atoms: C7_7  and  C16_16 
REMARK    6  A    between atoms: C8_8  and  C17_17 
REMARK    7  A    between atoms: C9_9  and  C21_21 
REMARK    8  A    between atoms: C9_9  and  C20_20 
REMARK    9  A    between atoms: C20_20  and  C24_24 
REMARK   10  A    between atoms: C21_21  and  C25_25 
ROOT
HETATM    1  O1          0      44.722  15.417 193.276  1.00  0.00    -0.353 OA
HETATM    2  C26         0      44.451  14.512 194.348  1.00  0.00     0.210 C 
ENDROOT
BRANCH   1   3
HETATM    3  C12         0      44.127  16.679 193.493  1.00  0.00     0.102 A 
HETATM    4  C18         0      44.873  17.767 193.325  1.00  0.00     0.099 A 
HETATM    5  C22         0      44.282  19.097 193.543  1.00  0.00     0.040 A 
HETATM    6  C14         0      43.000  19.225 193.908  1.00  0.00     0.014 A 
HETATM    7  C7          0      42.150  18.032 194.101  1.00  0.00    -0.033 A 
HETATM    8  C10         0      42.691  16.819 193.901  1.00  0.00     0.051 A 
BRANCH   4   9
HETATM    9  O3          0      46.218  17.630 192.942  1.00  0.00    -0.358 OA
HETATM   10  H40         0      46.308  16.916 192.261  1.00  0.00     0.217 HD
ENDBRANCH   4   9
BRANCH   7  11
HETATM   11  C16         0      40.678  18.163 194.520  1.00  0.00     0.015 C 
HETATM   12  C24         0      39.640  17.689 193.793  1.00  0.00     0.051 C 
BRANCH  12  13
HETATM   13  C20         0      38.182  17.853 194.270  1.00  0.00     0.156 C 
HETATM   14  O5          0      37.691  18.987 194.310  1.00  0.00    -0.293 OA
BRANCH  13  15
HETATM   15  C9          0      37.310  16.608 194.706  1.00  0.00     0.165 C 
BRANCH  15  16
HETATM   16  C21         0      37.471  16.172 196.217  1.00  0.00     0.156 C 
HETATM   17  O6          0      36.464  15.989 196.911  1.00  0.00    -0.293 OA
BRANCH  16  18
HETATM   18  C25         0      38.861  15.968 196.853  1.00  0.00     0.051 C 
HETATM   19  C17         0      39.743  15.073 196.350  1.00  0.00     0.015 C 
BRANCH  19  20
HETATM   20  C8          0      41.141  14.823 196.936  1.00  0.00    -0.033 A 
HETATM   21  C15         0      41.664  13.452 197.109  1.00  0.00     0.014 A 
HETATM   22  C23         0      42.886  13.247 197.620  1.00  0.00     0.040 A 
HETATM   23  C19         0      43.732  14.382 198.022  1.00  0.00     0.099 A 
HETATM   24  C13         0      43.281  15.625 197.876  1.00  0.00     0.102 A 
HETATM   25  C11         0      41.915  15.858 197.303  1.00  0.00     0.051 A 
BRANCH  23  26
HETATM   26  O4          0      45.013  14.171 198.559  1.00  0.00    -0.358 OA
HETATM   27  H41         0      45.127  14.702 199.387  1.00  0.00     0.217 HD
ENDBRANCH  23  26
BRANCH  24  28
HETATM   28  O2          0      44.117  16.692 198.270  1.00  0.00    -0.353 OA
HETATM   29  C27         0      44.497  17.507 197.159  1.00  0.00     0.210 C 
ENDBRANCH  24  28
ENDBRANCH  19  20
ENDBRANCH  16  18
ENDBRANCH  15  16
ENDBRANCH  13  15
ENDBRANCH  12  13
ENDBRANCH   7  11
ENDBRANCH   1   3
TORSDOF 10
ENDMDL
MODEL 6
REMARK VINA RESULT:     0.001      4.196      7.834
REMARK INTER + INTRA:          -2.165
REMARK INTER:                   0.000
REMARK INTRA:                  -2.165
REMARK UNBOUND:                -2.166
REMARK  10 active torsions:
REMARK  status: ('A' for Active; 'I' for Inactive)
REMARK    1  A    between atoms: O1_1  and  C12_12 
REMARK    2  A    between atoms: O2_2  and  C13_13 
REMARK    3  A    between atoms: O3_3  and  C18_18 
REMARK    4  A    between atoms: O4_4  and  C19_19 
REMARK    5  A    between atoms: C7_7  and  C16_16 
REMARK    6  A    between atoms: C8_8  and  C17_17 
REMARK    7  A    between atoms: C9_9  and  C21_21 
REMARK    8  A    between atoms: C9_9  and  C20_20 
REMARK    9  A    between atoms: C20_20  and  C24_24 
REMARK   10  A    between atoms: C21_21  and  C25_25 
ROOT
HETATM    1  O1          0      39.664  10.276 192.142  1.00  0.00    -0.353 OA
HETATM    2  C26         0      41.069  10.449 191.947  1.00  0.00     0.210 C 
ENDROOT
BRANCH   1   3
HETATM    3  C12         0      39.118  11.296 192.951  1.00  0.00     0.102 A 
HETATM    4  C18         0      38.002  11.896 192.546  1.00  0.00     0.099 A 
HETATM    5  C22         0      37.408  12.963 193.366  1.00  0.00     0.040 A 
HETATM    6  C14         0      37.977  13.337 194.519  1.00  0.00     0.014 A 
HETATM    7  C7          0      39.217  12.686 194.993  1.00  0.00    -0.033 A 
HETATM    8  C10         0      39.758  11.712 194.242  1.00  0.00     0.051 A 
BRANCH   4   9
HETATM    9  O3          0      37.407  11.501 191.335  1.00  0.00    -0.358 OA
HETATM   10  H40         0      37.199  10.533 191.357  1.00  0.00     0.217 HD
ENDBRANCH   4   9
BRANCH   7  11
HETATM   11  C16         0      39.882  13.105 196.313  1.00  0.00     0.015 C 
HETATM   12  C24         0      40.099  12.264 197.350  1.00  0.00     0.051 C 
BRANCH  12  13
HETATM   13  C20         0      40.772  12.747 198.651  1.00  0.00     0.156 C 
HETATM   14  O5          0      40.169  13.550 199.373  1.00  0.00    -0.293 OA
BRANCH  13  15
HETATM   15  C9          0      42.208  12.240 199.076  1.00  0.00     0.165 C 
BRANCH  15  16
HETATM   16  C21         0      43.416  13.057 198.466  1.00  0.00     0.156 C 
HETATM   17  O6          0      44.320  13.460 199.208  1.00  0.00    -0.293 OA
BRANCH  16  18
HETATM   18  C25         0      43.499  13.369 196.957  1.00  0.00     0.051 C 
HETATM   19  C17         0      43.509  12.381 196.032  1.00  0.00     0.015 C 
BRANCH  19  20
HETATM   20  C8          0      43.589  12.624 194.517  1.00  0.00    -0.033 A 
HETATM   21  C15         0      44.481  11.818 193.659  1.00  0.00     0.014 A 
HETATM   22  C23         0      44.541  12.040 192.339  1.00  0.00     0.040 A 
HETATM   23  C19         0      43.721  13.090 191.715  1.00  0.00     0.099 A 
HETATM   24  C13         0      42.910  13.828 192.469  1.00  0.00     0.102 A 
HETATM   25  C11         0      42.841  13.583 193.947  1.00  0.00     0.051 A 
BRANCH  23  26
HETATM   26  O4          0      43.781  13.326 190.331  1.00  0.00    -0.358 OA
HETATM   27  H41         0      43.011  13.877 190.045  1.00  0.00     0.217 HD
ENDBRANCH  23  26
BRANCH  24  28
HETATM   28  O2          0      42.136  14.828 191.841  1.00  0.00    -0.353 OA
HETATM   29  C27         0      40.736  14.551 191.933  1.00  0.00     0.210 C 
ENDBRANCH  24  28
ENDBRANCH  19  20
ENDBRANCH  16  18
ENDBRANCH  15  16
ENDBRANCH  13  15
ENDBRANCH  12  13
ENDBRANCH   7  11
ENDBRANCH   1   3
TORSDOF 10
ENDMDL
MODEL 7
REMARK VINA RESULT:     0.001      4.108      6.952
REMARK INTER + INTRA:          -2.164
REMARK INTER:                   0.000
REMARK INTRA:                  -2.164
REMARK UNBOUND:                -2.166
REMARK  10 active torsions:
REMARK  status: ('A' for Active; 'I' for Inactive)
REMARK    1  A    between atoms: O1_1  and  C12_12 
REMARK    2  A    between atoms: O2_2  and  C13_13 
REMARK    3  A    between atoms: O3_3  and  C18_18 
REMARK    4  A    between atoms: O4_4  and  C19_19 
REMARK    5  A    between atoms: C7_7  and  C16_16 
REMARK    6  A    between atoms: C8_8  and  C17_17 
REMARK    7  A    between atoms: C9_9  and  C21_21 
REMARK    8  A    between atoms: C9_9  and  C20_20 
REMARK    9  A    between atoms: C20_20  and  C24_24 
REMARK   10  A    between atoms: C21_21  and  C25_25 
ROOT
HETATM    1  O1          0      42.590  15.253 195.536  1.00  0.00    -0.353 OA
HETATM    2  C26         0      43.504  14.202 195.856  1.00  0.00     0.210 C 
ENDROOT
BRANCH   1   3
HETATM    3  C12         0      41.862  14.975 194.359  1.00  0.00     0.102 A 
HETATM    4  C18         0      40.544  14.819 194.453  1.00  0.00     0.099 A 
HETATM    5  C22         0      39.757  14.528 193.245  1.00  0.00     0.040 A 
HETATM    6  C14         0      40.351  14.420 192.050  1.00  0.00     0.014 A 
HETATM    7  C7          0      41.814  14.589 191.918  1.00  0.00    -0.033 A 
HETATM    8  C10         0      42.531  14.855 193.023  1.00  0.00     0.051 A 
BRANCH   4   9
HETATM    9  O3          0      39.923  14.932 195.708  1.00  0.00    -0.358 OA
HETATM   10  H40         0      39.126  15.517 195.643  1.00  0.00     0.217 HD
ENDBRANCH   4   9
BRANCH   7  11
HETATM   11  C16         0      42.510  14.468 190.555  1.00  0.00     0.015 C 
HETATM   12  C24         0      43.466  15.319 190.115  1.00  0.00     0.051 C 
BRANCH  12  13
HETATM   13  C20         0      44.127  15.142 188.733  1.00  0.00     0.156 C 
HETATM   14  O5          0      44.048  16.063 187.911  1.00  0.00    -0.293 OA
BRANCH  13  15
HETATM   15  C9          0      44.898  13.816 188.349  1.00  0.00     0.165 C 
BRANCH  15  16
HETATM   16  C21         0      45.956  13.322 189.415  1.00  0.00     0.156 C 
HETATM   17  O6          0      47.142  13.654 189.299  1.00  0.00    -0.293 OA
BRANCH  16  18
HETATM   18  C25         0      45.546  12.429 190.603  1.00  0.00     0.051 C 
HETATM   19  C17         0      45.594  12.883 191.877  1.00  0.00     0.015 C 
BRANCH  19  20
HETATM   20  C8          0      45.199  12.046 193.103  1.00  0.00    -0.033 A 
HETATM   21  C15         0      46.162  11.781 194.191  1.00  0.00     0.014 A 
HETATM   22  C23         0      45.805  11.049 195.256  1.00  0.00     0.040 A 
HETATM   23  C19         0      44.447  10.493 195.364  1.00  0.00     0.099 A 
HETATM   24  C13         0      43.563  10.719 194.395  1.00  0.00     0.102 A 
HETATM   25  C11         0      43.960  11.537 193.203  1.00  0.00     0.051 A 
BRANCH  23  26
HETATM   26  O4          0      44.069   9.725 196.478  1.00  0.00    -0.358 OA
HETATM   27  H41         0      44.845   9.212 196.818  1.00  0.00     0.217 HD
ENDBRANCH  23  26
BRANCH  24  28
HETATM   28  O2          0      42.268  10.171 194.528  1.00  0.00    -0.353 OA
HETATM   29  C27         0      41.253  11.146 194.279  1.00  0.00     0.210 C 
ENDBRANCH  24  28
ENDBRANCH  19  20
ENDBRANCH  16  18
ENDBRANCH  15  16
ENDBRANCH  13  15
ENDBRANCH  12  13
ENDBRANCH   7  11
ENDBRANCH   1   3
TORSDOF 10
ENDMDL
MODEL 8
REMARK VINA RESULT:     0.001      5.346      8.147
REMARK INTER + INTRA:          -2.164
REMARK INTER:                   0.000
REMARK INTRA:                  -2.164
REMARK UNBOUND:                -2.166
REMARK  10 active torsions:
REMARK  status: ('A' for Active; 'I' for Inactive)
REMARK    1  A    between atoms: O1_1  and  C12_12 
REMARK    2  A    between atoms: O2_2  and  C13_13 
REMARK    3  A    between atoms: O3_3  and  C18_18 
REMARK    4  A    between atoms: O4_4  and  C19_19 
REMARK    5  A    between atoms: C7_7  and  C16_16 
REMARK    6  A    between atoms: C8_8  and  C17_17 
REMARK    7  A    between atoms: C9_9  and  C21_21 
REMARK    8  A    between atoms: C9_9  and  C20_20 
REMARK    9  A    between atoms: C20_20  and  C24_24 
REMARK   10  A    between atoms: C21_21  and  C25_25 
ROOT
HETATM    1  O1          0      42.603  13.595 201.401  1.00  0.00    -0.353 OA
HETATM    2  C26         0      41.630  13.586 200.355  1.00  0.00     0.210 C 
ENDROOT
BRANCH   1   3
HETATM    3  C12         0      42.879  14.905 201.847  1.00  0.00     0.102 A 
HETATM    4  C18         0      42.571  15.225 203.101  1.00  0.00     0.099 A 
HETATM    5  C22         0      42.846  16.582 203.597  1.00  0.00     0.040 A 
HETATM    6  C14         0      43.406  17.501 202.800  1.00  0.00     0.014 A 
HETATM    7  C7          0      43.759  17.172 201.403  1.00  0.00    -0.033 A 
HETATM    8  C10         0      43.507  15.932 200.953  1.00  0.00     0.051 A 
BRANCH   4   9
HETATM    9  O3          0      41.984  14.258 203.935  1.00  0.00    -0.358 OA
HETATM   10  H40         0      41.928  14.597 204.864  1.00  0.00     0.217 HD
ENDBRANCH   4   9
BRANCH   7  11
HETATM   11  C16         0      44.401  18.216 200.477  1.00  0.00     0.015 C 
HETATM   12  C24         0      45.449  17.960 199.661  1.00  0.00     0.051 C 
BRANCH  12  13
HETATM   13  C20         0      46.050  19.053 198.753  1.00  0.00     0.156 C 
HETATM   14  O5          0      47.248  19.337 198.873  1.00  0.00    -0.293 OA
BRANCH  13  15
HETATM   15  C9          0      45.170  19.813 197.683  1.00  0.00     0.165 C 
BRANCH  15  16
HETATM   16  C21         0      44.313  18.883 196.734  1.00  0.00     0.156 C 
HETATM   17  O6          0      44.769  18.544 195.635  1.00  0.00    -0.293 OA
BRANCH  16  18
HETATM   18  C25         0      42.914  18.382 197.146  1.00  0.00     0.051 C 
HETATM   19  C17         0      42.678  17.073 197.396  1.00  0.00     0.015 C 
BRANCH  19  20
HETATM   20  C8          0      41.309  16.511 197.810  1.00  0.00    -0.033 A 
HETATM   21  C15         0      40.637  15.467 197.010  1.00  0.00     0.014 A 
HETATM   22  C23         0      39.443  14.985 197.382  1.00  0.00     0.040 A 
HETATM   23  C19         0      38.776  15.484 198.594  1.00  0.00     0.099 A 
HETATM   24  C13         0      39.363  16.425 199.330  1.00  0.00     0.102 A 
HETATM   25  C11         0      40.698  16.966 198.916  1.00  0.00     0.051 A 
BRANCH  23  26
HETATM   26  O4          0      37.524  14.981 198.987  1.00  0.00    -0.358 OA
HETATM   27  H41         0      36.820  15.658 198.828  1.00  0.00     0.217 HD
ENDBRANCH  23  26
BRANCH  24  28
HETATM   28  O2          0      38.697  16.883 200.488  1.00  0.00    -0.353 OA
HETATM   29  C27         0      39.565  16.906 201.624  1.00  0.00     0.210 C 
ENDBRANCH  24  28
ENDBRANCH  19  20
ENDBRANCH  16  18
ENDBRANCH  15  16
ENDBRANCH  13  15
ENDBRANCH  12  13
ENDBRANCH   7  11
ENDBRANCH   1   3
TORSDOF 10
ENDMDL
MODEL 9
REMARK VINA RESULT:     0.002      8.714      9.949
REMARK INTER + INTRA:          -2.163
REMARK INTER:                   0.000
REMARK INTRA:                  -2.163
REMARK UNBOUND:                -2.166
REMARK  10 active torsions:
REMARK  status: ('A' for Active; 'I' for Inactive)
REMARK    1  A    between atoms: O1_1  and  C12_12 
REMARK    2  A    between atoms: O2_2  and  C13_13 
REMARK    3  A    between atoms: O3_3  and  C18_18 
REMARK    4  A    between atoms: O4_4  and  C19_19 
REMARK    5  A    between atoms: C7_7  and  C16_16 
REMARK    6  A    between atoms: C8_8  and  C17_17 
REMARK    7  A    between atoms: C9_9  and  C21_21 
REMARK    8  A    between atoms: C9_9  and  C20_20 
REMARK    9  A    between atoms: C20_20  and  C24_24 
REMARK   10  A    between atoms: C21_21  and  C25_25 
ROOT
HETATM    1  O1          0      33.130   9.294 200.691  1.00  0.00    -0.353 OA
HETATM    2  C26         0      33.219  10.306 201.696  1.00  0.00     0.210 C 
ENDROOT
BRANCH   1   3
HETATM    3  C12         0      33.619   9.747 199.447  1.00  0.00     0.102 A 
HETATM    4  C18         0      34.486   8.980 198.791  1.00  0.00     0.099 A 
HETATM    5  C22         0      35.015   9.423 197.492  1.00  0.00     0.040 A 
HETATM    6  C14         0      34.631  10.591 196.959  1.00  0.00     0.014 A 
HETATM    7  C7          0      33.669  11.461 197.666  1.00  0.00    -0.033 A 
HETATM    8  C10         0      33.188  11.054 198.853  1.00  0.00     0.051 A 
BRANCH   4   9
HETATM    9  O3          0      34.887   7.756 199.353  1.00  0.00    -0.358 OA
HETATM   10  H40         0      34.857   7.040 198.669  1.00  0.00     0.217 HD
ENDBRANCH   4   9
BRANCH   7  11
HETATM   11  C16         0      33.220  12.803 197.069  1.00  0.00     0.015 C 
HETATM   12  C24         0      31.933  13.114 196.790  1.00  0.00     0.051 C 
BRANCH  12  13
HETATM   13  C20         0      31.547  14.481 196.189  1.00  0.00     0.156 C 
HETATM   14  O5          0      31.907  14.750 195.037  1.00  0.00    -0.293 OA
BRANCH  13  15
HETATM   15  C9          0      30.707  15.537 197.012  1.00  0.00     0.165 C 
BRANCH  15  16
HETATM   16  C21         0      31.556  16.493 197.943  1.00  0.00     0.156 C 
HETATM   17  O6          0      31.375  17.715 197.893  1.00  0.00    -0.293 OA
BRANCH  16  18
HETATM   18  C25         0      32.613  15.936 198.919  1.00  0.00     0.051 C 
HETATM   19  C17         0      32.286  15.037 199.875  1.00  0.00     0.015 C 
BRANCH  19  20
HETATM   20  C8          0      33.290  14.444 200.876  1.00  0.00    -0.033 A 
HETATM   21  C15         0      32.960  14.325 202.312  1.00  0.00     0.014 A 
HETATM   22  C23         0      33.844  13.806 203.174  1.00  0.00     0.040 A 
HETATM   23  C19         0      35.162  13.344 202.712  1.00  0.00     0.099 A 
HETATM   24  C13         0      35.481  13.443 201.424  1.00  0.00     0.102 A 
HETATM   25  C11         0      34.494  14.023 200.456  1.00  0.00     0.051 A 
BRANCH  23  26
HETATM   26  O4          0      36.092  12.800 203.614  1.00  0.00    -0.358 OA
HETATM   27  H41         0      36.127  13.346 204.439  1.00  0.00     0.217 HD
ENDBRANCH  23  26
BRANCH  24  28
HETATM   28  O2          0      36.754  12.991 201.012  1.00  0.00    -0.353 OA
HETATM   29  C27         0      36.658  11.884 200.112  1.00  0.00     0.210 C 
ENDBRANCH  24  28
ENDBRANCH  19  20
ENDBRANCH  16  18
ENDBRANCH  15  16
ENDBRANCH  13  15
ENDBRANCH  12  13
ENDBRANCH   7  11
ENDBRANCH   1   3
TORSDOF 10
ENDMDL
