MODEL 1
REMARK VINA RESULT:    -3.629      0.000      0.000
REMARK INTER + INTRA:          -7.985
REMARK INTER:                  -6.069
REMARK INTRA:                  -1.916
REMARK UNBOUND:                -1.916
REMARK  Name = TETCA.pdb
REMARK  10 active torsions:
REMARK  status: ('A' for Active; 'I' for Inactive)
REMARK    1  A    between atoms: O1_1  and  C14_14
REMARK    2  A    between atoms: O2_2  and  C16_16
REMARK    3  A    between atoms: O4_4  and  C19_19
REMARK    4  A    between atoms: O5_5  and  C22_22
REMARK    5  A    between atoms: O7_7  and  C29_29
REMARK    6  A    between atoms: N9_9  and  C15_15
REMARK    7  A    between atoms: N9_9  and  C27_27
REMARK    8  A    between atoms: N9_9  and  C28_28
REMARK    9  A    between atoms: C16_16  and  C25_25
REMARK   10  A    between atoms: C23_23  and  C30_30
REMARK                            x       y       z     vdW  Elec       q    Type
REMARK                         _______ _______ _______ _____ _____    ______ ____
ROOT
ATOM      1  O3  UNK T   1      36.149  11.697 200.695  0.00  0.00    +0.000 OA
ATOM      2  O6  UNK T   1      35.579  14.866 195.012  0.00  0.00    +0.000 OA
ATOM      3  C11 UNK T   1      36.264  14.609 198.545  0.00  0.00    +0.000 C 
ATOM      4  C12 UNK T   1      38.546  13.897 199.438  0.00  0.00    +0.000 C 
ATOM      5  C13 UNK T   1      37.802  14.595 198.286  0.00  0.00    +0.000 C 
ATOM      6  C14 UNK T   1      35.666  13.205 198.832  0.00  0.00    +0.000 C 
ATOM      7  C15 UNK T   1      35.555  15.290 197.363  0.00  0.00    +0.000 C 
ATOM      8  C16 UNK T   1      40.102  13.958 199.394  0.00  0.00    +0.000 C 
ATOM      9  C17 UNK T   1      38.024  12.495 199.491  0.00  0.00    +0.000 C 
ATOM     10  C18 UNK T   1      36.570  12.401 199.783  0.00  0.00    +0.000 C 
ATOM     11  C19 UNK T   1      35.417  12.386 197.579  0.00  0.00    +0.000 C 
ATOM     12  C20 UNK T   1      40.728  12.789 198.634  0.00  0.00    +0.000 A 
ATOM     13  C21 UNK T   1      35.540  14.387 196.146  0.00  0.00    +0.000 C 
ATOM     14  C22 UNK T   1      38.709  11.398 199.139  0.00  0.00    +0.000 C 
ATOM     15  C23 UNK T   1      35.411  12.904 196.334  0.00  0.00    +0.000 C 
ATOM     16  C24 UNK T   1      40.062  11.544 198.557  0.00  0.00    +0.000 A 
ATOM     17  C25 UNK T   1      40.664  13.938 200.829  0.00  0.00    +0.000 C 
ATOM     18  C26 UNK T   1      42.010  12.925 198.066  0.00  0.00    +0.000 A 
ATOM     19  C29 UNK T   1      40.689  10.488 197.871  0.00  0.00    +0.000 A 
ATOM     20  C31 UNK T   1      42.616  11.862 197.403  0.00  0.00    +0.000 A 
ATOM     21  C32 UNK T   1      41.954  10.645 197.302  0.00  0.00    +0.000 A 
ENDROOT
BRANCH  15  24
ATOM     22  O8  UNK T   1      35.956  11.052 194.979  0.00  0.00    +0.000 OA
ATOM     23  N10 UNK T   1      34.270  12.472 194.293  0.00  0.00    +0.000 N 
ATOM     24  C30 UNK T   1      35.255  12.043 195.148  0.00  0.00    +0.000 C 
ATOM     25  H54 UNK T   1      34.044  11.992 193.427  0.00  0.00    +0.000 HD
ATOM     26  H55 UNK T   1      33.730  13.305 194.500  0.00  0.00    +0.000 HD
ENDBRANCH  15  24
BRANCH   7  27
ATOM     27  N9  UNK T   1      34.161  15.624 197.647  0.00  0.00    +0.000 NA
ATOM     28  C27 UNK T   1      34.084  16.646 198.690  0.00  0.00    +0.000 C 
ATOM     29  C28 UNK T   1      33.490  16.081 196.432  0.00  0.00    +0.000 C 
ENDBRANCH   7  27
BRANCH   6  30
ATOM     30  O1  UNK T   1      34.411  13.336 199.499  0.00  0.00    +0.000 OA
ATOM     31  H41 UNK T   1      34.109  14.258 199.438  0.00  0.00    +0.000 HD
ENDBRANCH   6  30
BRANCH   8  32
ATOM     32  O2  UNK T   1      40.492  15.216 198.832  0.00  0.00    +0.000 OA
ATOM     33  H42 UNK T   1      40.221  15.226 197.898  0.00  0.00    +0.000 HD
ENDBRANCH   8  32
BRANCH  11  34
ATOM     34  O4  UNK T   1      35.181  11.046 197.852  0.00  0.00    +0.000 OA
ATOM     35  H50 UNK T   1      34.258  10.924 198.124  0.00  0.00    +0.000 HD
ENDBRANCH  11  34
BRANCH  14  36
ATOM     36  O5  UNK T   1      38.139  10.141 199.202  0.00  0.00    +0.000 OA
ATOM     37  H51 UNK T   1      38.176   9.805 200.112  0.00  0.00    +0.000 HD
ENDBRANCH  14  36
BRANCH  19  38
ATOM     38  O7  UNK T   1      40.127   9.248 197.741  0.00  0.00    +0.000 OA
ATOM     39  H56 UNK T   1      39.211   9.264 198.064  0.00  0.00    +0.000 HD
ENDBRANCH  19  38
TORSDOF 7
REMARK  Name = KETCA.pdb
REMARK  8 active torsions:
REMARK  status: ('A' for Active; 'I' for Inactive)
REMARK    1  A    between atoms: O5_5  and  C16_16
REMARK    2  A    between atoms: O5_5  and  C24_24
REMARK    3  A    between atoms: N7_7  and  C21_21
REMARK    4  A    between atoms: N9_9  and  C14_14
REMARK    5  A    between atoms: C11_11  and  C14_14
REMARK    6  A    between atoms: C11_11  and  C15_15
REMARK    7  A    between atoms: C12_12  and  C16_16
REMARK    8  A    between atoms: C25_25  and  C36_36
REMARK                            x       y       z     vdW  Elec       q    Type
REMARK                         _______ _______ _______ _____ _____    ______ ____
ROOT
ATOM      1  O3  UNK K   1      40.379  17.911 198.390  0.00  0.00    +0.000 OA
ATOM      2  O4  UNK K   1      40.474  19.814 199.733  0.00  0.00    +0.000 OA
ATOM      3  C11 UNK K   1      39.541  18.798 199.280  0.00  0.00    +0.000 C 
ATOM      4  C12 UNK K   1      41.701  18.572 198.320  0.00  0.00    +0.000 C 
ATOM      5  C13 UNK K   1      41.277  20.030 198.503  0.00  0.00    +0.000 C 
ENDROOT
BRANCH   3   8
ATOM      6 CL1  UNK K   1      41.115  17.336 201.758  0.00  0.00    +0.000 Cl
ATOM      7 CL2  UNK K   1      36.353  15.623 203.489  0.00  0.00    +0.000 Cl
ATOM      8  C15 UNK K   1      38.838  17.927 200.414  0.00  0.00    +0.000 A 
ATOM      9  C22 UNK K   1      39.427  17.344 201.483  0.00  0.00    +0.000 A 
ATOM     10  C23 UNK K   1      37.365  17.831 200.313  0.00  0.00    +0.000 A 
ATOM     11  C32 UNK K   1      38.611  16.579 202.453  0.00  0.00    +0.000 A 
ATOM     12  C33 UNK K   1      36.645  17.138 201.195  0.00  0.00    +0.000 A 
ATOM     13  C34 UNK K   1      37.291  16.505 202.327  0.00  0.00    +0.000 A 
ENDBRANCH   3   8
BRANCH   3  14
ATOM     14  C14 UNK K   1      38.476  19.570 198.367  0.00  0.00    +0.000 C 
BRANCH  14  15
ATOM     15  N9  UNK K   1      38.251  19.042 196.992  0.00  0.00    +0.000 N 
ATOM     16  N10 UNK K   1      38.275  18.966 194.831  0.00  0.00    +0.000 NA
ATOM     17  C28 UNK K   1      37.305  18.081 196.637  0.00  0.00    +0.000 A 
ATOM     18  C29 UNK K   1      38.806  19.574 195.824  0.00  0.00    +0.000 A 
ATOM     19  C35 UNK K   1      37.328  18.020 195.305  0.00  0.00    +0.000 A 
ENDBRANCH  14  15
ENDBRANCH   3  14
BRANCH   4  20
ATOM     20  C16 UNK K   1      42.628  18.155 197.006  0.00  0.00    +0.000 C 
BRANCH  20  21
ATOM     21  O5  UNK K   1      41.835  17.800 195.766  0.00  0.00    +0.000 OA
BRANCH  21  23
ATOM     22  C21 UNK K   1      41.035  13.599 194.607  0.00  0.00    +0.000 A 
ATOM     23  C24 UNK K   1      41.639  16.349 195.360  0.00  0.00    +0.000 A 
ATOM     24  C26 UNK K   1      42.271  14.107 194.440  0.00  0.00    +0.000 A 
ATOM     25  C27 UNK K   1      40.008  14.480 195.189  0.00  0.00    +0.000 A 
ATOM     26  C30 UNK K   1      42.597  15.557 194.848  0.00  0.00    +0.000 A 
ATOM     27  C31 UNK K   1      40.281  15.751 195.527  0.00  0.00    +0.000 A 
BRANCH  22  29
ATOM     28  O6  UNK K   1      40.018   7.739 191.892  0.00  0.00    +0.000 OA
ATOM     29  N7  UNK K   1      40.675  12.210 194.212  0.00  0.00    +0.000 N 
ATOM     30  N8  UNK K   1      39.884   9.541 193.340  0.00  0.00    +0.000 N 
ATOM     31  C17 UNK K   1      41.641  11.317 193.588  0.00  0.00    +0.000 C 
ATOM     32  C18 UNK K   1      39.312  11.720 194.411  0.00  0.00    +0.000 C 
ATOM     33  C19 UNK K   1      40.923  10.268 192.638  0.00  0.00    +0.000 C 
ATOM     34  C20 UNK K   1      39.260  10.144 194.496  0.00  0.00    +0.000 C 
ATOM     35  C25 UNK K   1      39.484   8.241 192.889  0.00  0.00    +0.000 C 
ATOM     36  C36 UNK K   1      38.433   7.454 193.634  0.00  0.00    +0.000 C 
ENDBRANCH  22  29
ENDBRANCH  21  23
ENDBRANCH  20  21
ENDBRANCH   4  20
TORSDOF 7
ENDMDL
MODEL 2
REMARK VINA RESULT:    -3.624      2.968      6.771
REMARK INTER + INTRA:          -7.977
REMARK INTER:                  -6.067
REMARK INTRA:                  -1.910
REMARK UNBOUND:                -1.916
REMARK  Name = TETCA.pdb
REMARK  10 active torsions:
REMARK  status: ('A' for Active; 'I' for Inactive)
REMARK    1  A    between atoms: O1_1  and  C14_14
REMARK    2  A    between atoms: O2_2  and  C16_16
REMARK    3  A    between atoms: O4_4  and  C19_19
REMARK    4  A    between atoms: O5_5  and  C22_22
REMARK    5  A    between atoms: O7_7  and  C29_29
REMARK    6  A    between atoms: N9_9  and  C15_15
REMARK    7  A    between atoms: N9_9  and  C27_27
REMARK    8  A    between atoms: N9_9  and  C28_28
REMARK    9  A    between atoms: C16_16  and  C25_25
REMARK   10  A    between atoms: C23_23  and  C30_30
REMARK                            x       y       z     vdW  Elec       q    Type
REMARK                         _______ _______ _______ _____ _____    ______ ____
ROOT
ATOM      1  O3  UNK T   1      37.364  19.766 200.955  0.00  0.00    +0.000 OA
ATOM      2  O6  UNK T   1      39.885  16.792 195.715  0.00  0.00    +0.000 OA
ATOM      3  C11 UNK T   1      39.889  17.903 199.148  0.00  0.00    +0.000 C 
ATOM      4  C12 UNK T   1      38.761  16.570 201.008  0.00  0.00    +0.000 C 
ATOM      5  C13 UNK T   1      39.475  16.486 199.648  0.00  0.00    +0.000 C 
ATOM      6  C14 UNK T   1      38.714  18.916 199.102  0.00  0.00    +0.000 C 
ATOM      7  C15 UNK T   1      40.576  17.779 197.777  0.00  0.00    +0.000 C 
ATOM      8  C16 UNK T   1      38.441  15.216 201.707  0.00  0.00    +0.000 C 
ATOM      9  C17 UNK T   1      37.541  17.412 200.792  0.00  0.00    +0.000 C 
ATOM     10  C18 UNK T   1      37.834  18.802 200.359  0.00  0.00    +0.000 C 
ATOM     11  C19 UNK T   1      37.836  18.771 197.872  0.00  0.00    +0.000 C 
ATOM     12  C20 UNK T   1      37.075  14.649 201.323  0.00  0.00    +0.000 A 
ATOM     13  C21 UNK T   1      39.566  17.474 196.689  0.00  0.00    +0.000 C 
ATOM     14  C22 UNK T   1      36.278  16.963 200.796  0.00  0.00    +0.000 C 
ATOM     15  C23 UNK T   1      38.190  18.066 196.778  0.00  0.00    +0.000 C 
ATOM     16  C24 UNK T   1      36.025  15.510 200.927  0.00  0.00    +0.000 A 
ATOM     17  C25 UNK T   1      38.455  15.404 203.237  0.00  0.00    +0.000 C 
ATOM     18  C26 UNK T   1      36.830  13.266 201.432  0.00  0.00    +0.000 A 
ATOM     19  C29 UNK T   1      34.776  14.947 200.609  0.00  0.00    +0.000 A 
ATOM     20  C31 UNK T   1      35.582  12.732 201.125  0.00  0.00    +0.000 A 
ATOM     21  C32 UNK T   1      34.557  13.572 200.709  0.00  0.00    +0.000 A 
ENDROOT
BRANCH  15  24
ATOM     22  O8  UNK T   1      36.110  17.490 195.826  0.00  0.00    +0.000 OA
ATOM     23  N10 UNK T   1      37.813  18.194 194.434  0.00  0.00    +0.000 N 
ATOM     24  C30 UNK T   1      37.258  17.883 195.651  0.00  0.00    +0.000 C 
ATOM     25  H54 UNK T   1      37.303  18.114 193.560  0.00  0.00    +0.000 HD
ATOM     26  H55 UNK T   1      38.773  18.513 194.368  0.00  0.00    +0.000 HD
ENDBRANCH  15  24
BRANCH   7  27
ATOM     27  N9  UNK T   1      41.266  19.000 197.370  0.00  0.00    +0.000 NA
ATOM     28  C27 UNK T   1      42.389  19.275 198.266  0.00  0.00    +0.000 C 
ATOM     29  C28 UNK T   1      41.730  18.887 195.988  0.00  0.00    +0.000 C 
ENDBRANCH   7  27
BRANCH   6  30
ATOM     30  O1  UNK T   1      39.220  20.251 199.095  0.00  0.00    +0.000 OA
ATOM     31  H41 UNK T   1      38.561  20.847 199.489  0.00  0.00    +0.000 HD
ENDBRANCH   6  30
BRANCH   8  32
ATOM     32  O2  UNK T   1      39.492  14.291 201.411  0.00  0.00    +0.000 OA
ATOM     33  H42 UNK T   1      39.864  14.524 200.543  0.00  0.00    +0.000 HD
ENDBRANCH   8  32
BRANCH  11  34
ATOM     34  O4  UNK T   1      36.634  19.454 197.986  0.00  0.00    +0.000 OA
ATOM     35  H50 UNK T   1      36.434  19.908 197.152  0.00  0.00    +0.000 HD
ENDBRANCH  11  34
BRANCH  14  36
ATOM     36  O5  UNK T   1      35.212  17.811 200.568  0.00  0.00    +0.000 OA
ATOM     37  H51 UNK T   1      34.377  17.350 200.747  0.00  0.00    +0.000 HD
ENDBRANCH  14  36
BRANCH  19  38
ATOM     38  O7  UNK T   1      33.701  15.694 200.215  0.00  0.00    +0.000 OA
ATOM     39  H56 UNK T   1      33.175  15.199 199.565  0.00  0.00    +0.000 HD
ENDBRANCH  19  38
TORSDOF 7
REMARK  Name = KETCA.pdb
REMARK  8 active torsions:
REMARK  status: ('A' for Active; 'I' for Inactive)
REMARK    1  A    between atoms: O5_5  and  C16_16
REMARK    2  A    between atoms: O5_5  and  C24_24
REMARK    3  A    between atoms: N7_7  and  C21_21
REMARK    4  A    between atoms: N9_9  and  C14_14
REMARK    5  A    between atoms: C11_11  and  C14_14
REMARK    6  A    between atoms: C11_11  and  C15_15
REMARK    7  A    between atoms: C12_12  and  C16_16
REMARK    8  A    between atoms: C25_25  and  C36_36
REMARK                            x       y       z     vdW  Elec       q    Type
REMARK                         _______ _______ _______ _____ _____    ______ ____
ROOT
ATOM      1  O3  UNK K   1      42.074  13.522 200.851  0.00  0.00    +0.000 OA
ATOM      2  O4  UNK K   1      44.015  13.474 202.142  0.00  0.00    +0.000 OA
ATOM      3  C11 UNK K   1      43.243  14.368 201.298  0.00  0.00    +0.000 C 
ATOM      4  C12 UNK K   1      42.346  12.172 201.391  0.00  0.00    +0.000 C 
ATOM      5  C13 UNK K   1      43.875  12.195 201.402  0.00  0.00    +0.000 C 
ENDROOT
BRANCH   3   8
ATOM      6 CL1  UNK K   1      41.687  14.512 204.180  0.00  0.00    +0.000 Cl
ATOM      7 CL2  UNK K   1      41.507  19.823 203.576  0.00  0.00    +0.000 Cl
ATOM      8  C15 UNK K   1      42.719  15.710 201.980  0.00  0.00    +0.000 A 
ATOM      9  C22 UNK K   1      42.117  15.835 203.185  0.00  0.00    +0.000 A 
ATOM     10  C23 UNK K   1      43.010  16.953 201.233  0.00  0.00    +0.000 A 
ATOM     11  C32 UNK K   1      41.706  17.170 203.673  0.00  0.00    +0.000 A 
ATOM     12  C33 UNK K   1      42.633  18.148 201.687  0.00  0.00    +0.000 A 
ATOM     13  C34 UNK K   1      41.975  18.267 202.973  0.00  0.00    +0.000 A 
ENDBRANCH   3   8
BRANCH   3  14
ATOM     14  C14 UNK K   1      44.169  14.664 200.025  0.00  0.00    +0.000 C 
BRANCH  14  15
ATOM     15  N9  UNK K   1      43.583  14.395 198.682  0.00  0.00    +0.000 N 
ATOM     16  N10 UNK K   1      43.291  13.445 196.762  0.00  0.00    +0.000 NA
ATOM     17  C28 UNK K   1      42.866  15.311 197.912  0.00  0.00    +0.000 A 
ATOM     18  C29 UNK K   1      43.837  13.262 197.904  0.00  0.00    +0.000 A 
ATOM     19  C35 UNK K   1      42.670  14.722 196.732  0.00  0.00    +0.000 A 
ENDBRANCH  14  15
ENDBRANCH   3  14
BRANCH   4  20
ATOM     20  C16 UNK K   1      41.558  10.932 200.616  0.00  0.00    +0.000 C 
BRANCH  20  21
ATOM     21  O5  UNK K   1      41.313  11.169 199.141  0.00  0.00    +0.000 OA
BRANCH  21  23
ATOM     22  C21 UNK K   1      37.319  12.524 197.784  0.00  0.00    +0.000 A 
ATOM     23  C24 UNK K   1      39.977  11.701 198.652  0.00  0.00    +0.000 A 
ATOM     24  C26 UNK K   1      38.339  13.402 197.817  0.00  0.00    +0.000 A 
ATOM     25  C27 UNK K   1      37.599  11.138 198.192  0.00  0.00    +0.000 A 
ATOM     26  C30 UNK K   1      39.749  12.968 198.264  0.00  0.00    +0.000 A 
ATOM     27  C31 UNK K   1      38.821  10.758 198.603  0.00  0.00    +0.000 A 
BRANCH  22  29
ATOM     28  O6  UNK K   1      31.237  13.161 195.470  0.00  0.00    +0.000 OA
ATOM     29  N7  UNK K   1      35.940  12.906 197.373  0.00  0.00    +0.000 N 
ATOM     30  N8  UNK K   1      33.283  13.659 196.433  0.00  0.00    +0.000 N 
ATOM     31  C17 UNK K   1      34.825  11.976 197.480  0.00  0.00    +0.000 C 
ATOM     32  C18 UNK K   1      35.683  14.229 196.807  0.00  0.00    +0.000 C 
ATOM     33  C19 UNK K   1      33.719  12.278 196.382  0.00  0.00    +0.000 C 
ATOM     34  C20 UNK K   1      34.173  14.659 196.979  0.00  0.00    +0.000 C 
ATOM     35  C25 UNK K   1      31.987  14.024 195.945  0.00  0.00    +0.000 C 
ATOM     36  C36 UNK K   1      31.503  15.452 196.029  0.00  0.00    +0.000 C 
ENDBRANCH  22  29
ENDBRANCH  21  23
ENDBRANCH  20  21
ENDBRANCH   4  20
TORSDOF 7
ENDMDL
MODEL 3
REMARK VINA RESULT:    -3.624      3.967      7.810
REMARK INTER + INTRA:          -7.976
REMARK INTER:                  -6.028
REMARK INTRA:                  -1.948
REMARK UNBOUND:                -1.916
REMARK  Name = TETCA.pdb
REMARK  10 active torsions:
REMARK  status: ('A' for Active; 'I' for Inactive)
REMARK    1  A    between atoms: O1_1  and  C14_14
REMARK    2  A    between atoms: O2_2  and  C16_16
REMARK    3  A    between atoms: O4_4  and  C19_19
REMARK    4  A    between atoms: O5_5  and  C22_22
REMARK    5  A    between atoms: O7_7  and  C29_29
REMARK    6  A    between atoms: N9_9  and  C15_15
REMARK    7  A    between atoms: N9_9  and  C27_27
REMARK    8  A    between atoms: N9_9  and  C28_28
REMARK    9  A    between atoms: C16_16  and  C25_25
REMARK   10  A    between atoms: C23_23  and  C30_30
REMARK                            x       y       z     vdW  Elec       q    Type
REMARK                         _______ _______ _______ _____ _____    ______ ____
ROOT
ATOM      1  O3  UNK T   1      43.214  18.673 196.880  0.00  0.00    +0.000 OA
ATOM      2  O6  UNK T   1      41.985  17.438 203.175  0.00  0.00    +0.000 OA
ATOM      3  C11 UNK T   1      41.383  19.014 199.985  0.00  0.00    +0.000 C 
ATOM      4  C12 UNK T   1      40.060  17.864 198.131  0.00  0.00    +0.000 C 
ATOM      5  C13 UNK T   1      40.250  17.995 199.652  0.00  0.00    +0.000 C 
ATOM      6  C14 UNK T   1      42.729  18.705 199.276  0.00  0.00    +0.000 C 
ATOM      7  C15 UNK T   1      41.559  19.098 201.511  0.00  0.00    +0.000 C 
ATOM      8  C16 UNK T   1      38.850  17.007 197.656  0.00  0.00    +0.000 C 
ATOM      9  C17 UNK T   1      41.365  17.374 197.583  0.00  0.00    +0.000 C 
ATOM     10  C18 UNK T   1      42.502  18.303 197.809  0.00  0.00    +0.000 C 
ATOM     11  C19 UNK T   1      43.541  17.622 199.964  0.00  0.00    +0.000 C 
ATOM     12  C20 UNK T   1      39.193  15.529 197.474  0.00  0.00    +0.000 A 
ATOM     13  C21 UNK T   1      42.247  17.859 202.047  0.00  0.00    +0.000 C 
ATOM     14  C22 UNK T   1      41.589  16.148 197.090  0.00  0.00    +0.000 C 
ATOM     15  C23 UNK T   1      43.297  17.184 201.216  0.00  0.00    +0.000 C 
ATOM     16  C24 UNK T   1      40.513  15.132 197.157  0.00  0.00    +0.000 A 
ATOM     17  C25 UNK T   1      38.335  17.537 196.304  0.00  0.00    +0.000 C 
ATOM     18  C26 UNK T   1      38.178  14.555 197.550  0.00  0.00    +0.000 A 
ATOM     19  C29 UNK T   1      40.778  13.764 196.971  0.00  0.00    +0.000 A 
ATOM     20  C31 UNK T   1      38.462  13.207 197.350  0.00  0.00    +0.000 A 
ATOM     21  C32 UNK T   1      39.762  12.811 197.065  0.00  0.00    +0.000 A 
ENDROOT
BRANCH  15  24
ATOM     22  O8  UNK T   1      44.150  14.985 201.225  0.00  0.00    +0.000 OA
ATOM     23  N10 UNK T   1      44.634  16.372 203.006  0.00  0.00    +0.000 N 
ATOM     24  C30 UNK T   1      44.061  16.065 201.797  0.00  0.00    +0.000 C 
ATOM     25  H54 UNK T   1      45.187  15.707 203.538  0.00  0.00    +0.000 HD
ATOM     26  H55 UNK T   1      44.516  17.291 203.418  0.00  0.00    +0.000 HD
ENDBRANCH  15  24
BRANCH   7  27
ATOM     27  N9  UNK T   1      42.372  20.237 201.931  0.00  0.00    +0.000 NA
ATOM     28  C27 UNK T   1      41.656  21.489 201.698  0.00  0.00    +0.000 C 
ATOM     29  C28 UNK T   1      42.736  20.109 203.341  0.00  0.00    +0.000 C 
ENDBRANCH   7  27
BRANCH   6  30
ATOM     30  O1  UNK T   1      43.543  19.877 199.243  0.00  0.00    +0.000 OA
ATOM     31  H41 UNK T   1      43.489  20.330 200.101  0.00  0.00    +0.000 HD
ENDBRANCH   6  30
BRANCH   8  32
ATOM     32  O2  UNK T   1      37.775  17.182 198.586  0.00  0.00    +0.000 OA
ATOM     33  H42 UNK T   1      37.147  16.450 198.464  0.00  0.00    +0.000 HD
ENDBRANCH   8  32
BRANCH  11  34
ATOM     34  O4  UNK T   1      44.573  17.141 199.172  0.00  0.00    +0.000 OA
ATOM     35  H50 UNK T   1      44.353  16.252 198.850  0.00  0.00    +0.000 HD
ENDBRANCH  11  34
BRANCH  14  36
ATOM     36  O5  UNK T   1      42.833  15.775 196.622  0.00  0.00    +0.000 OA
ATOM     37  H51 UNK T   1      43.527  16.216 197.137  0.00  0.00    +0.000 HD
ENDBRANCH  14  36
BRANCH  19  38
ATOM     38  O7  UNK T   1      42.020  13.281 196.663  0.00  0.00    +0.000 OA
ATOM     39  H56 UNK T   1      42.613  14.016 196.435  0.00  0.00    +0.000 HD
ENDBRANCH  19  38
TORSDOF 7
REMARK  Name = KETCA.pdb
REMARK  8 active torsions:
REMARK  status: ('A' for Active; 'I' for Inactive)
REMARK    1  A    between atoms: O5_5  and  C16_16
REMARK    2  A    between atoms: O5_5  and  C24_24
REMARK    3  A    between atoms: N7_7  and  C21_21
REMARK    4  A    between atoms: N9_9  and  C14_14
REMARK    5  A    between atoms: C11_11  and  C14_14
REMARK    6  A    between atoms: C11_11  and  C15_15
REMARK    7  A    between atoms: C12_12  and  C16_16
REMARK    8  A    between atoms: C25_25  and  C36_36
REMARK                            x       y       z     vdW  Elec       q    Type
REMARK                         _______ _______ _______ _____ _____    ______ ____
ROOT
ATOM      1  O3  UNK K   1      36.038  18.398 200.366  0.00  0.00    +0.000 OA
ATOM      2  O4  UNK K   1      34.634  20.256 200.280  0.00  0.00    +0.000 OA
ATOM      3  C11 UNK K   1      36.033  19.906 200.443  0.00  0.00    +0.000 C 
ATOM      4  C12 UNK K   1      34.613  18.010 200.283  0.00  0.00    +0.000 C 
ATOM      5  C13 UNK K   1      33.979  19.170 201.052  0.00  0.00    +0.000 C 
ENDROOT
BRANCH   3   8
ATOM      6 CL1  UNK K   1      35.633  19.726 197.193  0.00  0.00    +0.000 Cl
ATOM      7 CL2  UNK K   1      40.173  22.510 196.696  0.00  0.00    +0.000 Cl
ATOM      8  C15 UNK K   1      37.043  20.512 199.370  0.00  0.00    +0.000 A 
ATOM      9  C22 UNK K   1      36.906  20.511 198.023  0.00  0.00    +0.000 A 
ATOM     10  C23 UNK K   1      38.211  21.224 199.934  0.00  0.00    +0.000 A 
ATOM     11  C32 UNK K   1      37.943  21.138 197.173  0.00  0.00    +0.000 A 
ATOM     12  C33 UNK K   1      39.136  21.783 199.153  0.00  0.00    +0.000 A 
ATOM     13  C34 UNK K   1      38.984  21.762 197.712  0.00  0.00    +0.000 A 
ENDBRANCH   3   8
BRANCH   3  14
ATOM     14  C14 UNK K   1      36.414  20.338 201.937  0.00  0.00    +0.000 C 
BRANCH  14  15
ATOM     15  N9  UNK K   1      37.044  19.303 202.804  0.00  0.00    +0.000 N 
ATOM     16  N10 UNK K   1      37.265  17.894 204.429  0.00  0.00    +0.000 NA
ATOM     17  C28 UNK K   1      38.413  19.057 202.906  0.00  0.00    +0.000 A 
ATOM     18  C29 UNK K   1      36.384  18.568 203.792  0.00  0.00    +0.000 A 
ATOM     19  C35 UNK K   1      38.553  18.176 203.898  0.00  0.00    +0.000 A 
ENDBRANCH  14  15
ENDBRANCH   3  14
BRANCH   4  20
ATOM     20  C16 UNK K   1      34.279  16.449 200.746  0.00  0.00    +0.000 C 
BRANCH  20  21
ATOM     21  O5  UNK K   1      35.171  15.918 201.847  0.00  0.00    +0.000 OA
BRANCH  21  23
ATOM     22  C21 UNK K   1      38.651  13.313 200.987  0.00  0.00    +0.000 A 
ATOM     23  C24 UNK K   1      36.314  14.968 201.529  0.00  0.00    +0.000 A 
ATOM     24  C26 UNK K   1      37.411  12.789 200.963  0.00  0.00    +0.000 A 
ATOM     25  C27 UNK K   1      38.779  14.749 201.287  0.00  0.00    +0.000 A 
ATOM     26  C30 UNK K   1      36.172  13.663 201.238  0.00  0.00    +0.000 A 
ATOM     27  C31 UNK K   1      37.704  15.512 201.547  0.00  0.00    +0.000 A 
BRANCH  22  29
ATOM     28  O6  UNK K   1      43.511   8.957 200.594  0.00  0.00    +0.000 OA
ATOM     29  N7  UNK K   1      39.874  12.500 200.743  0.00  0.00    +0.000 N 
ATOM     30  N8  UNK K   1      42.305  10.924 200.401  0.00  0.00    +0.000 N 
ATOM     31  C17 UNK K   1      39.799  11.081 200.429  0.00  0.00    +0.000 C 
ATOM     32  C18 UNK K   1      41.197  13.113 200.855  0.00  0.00    +0.000 C 
ATOM     33  C19 UNK K   1      41.098  10.314 200.922  0.00  0.00    +0.000 C 
ATOM     34  C20 UNK K   1      42.284  12.320 200.027  0.00  0.00    +0.000 C 
ATOM     35  C25 UNK K   1      43.501  10.148 200.261  0.00  0.00    +0.000 C 
ATOM     36  C36 UNK K   1      44.755  10.759 199.681  0.00  0.00    +0.000 C 
ENDBRANCH  22  29
ENDBRANCH  21  23
ENDBRANCH  20  21
ENDBRANCH   4  20
TORSDOF 7
ENDMDL
MODEL 4
REMARK VINA RESULT:    -3.623      2.518      8.415
REMARK INTER + INTRA:          -7.974
REMARK INTER:                  -6.014
REMARK INTRA:                  -1.960
REMARK UNBOUND:                -1.916
REMARK  Name = TETCA.pdb
REMARK  10 active torsions:
REMARK  status: ('A' for Active; 'I' for Inactive)
REMARK    1  A    between atoms: O1_1  and  C14_14
REMARK    2  A    between atoms: O2_2  and  C16_16
REMARK    3  A    between atoms: O4_4  and  C19_19
REMARK    4  A    between atoms: O5_5  and  C22_22
REMARK    5  A    between atoms: O7_7  and  C29_29
REMARK    6  A    between atoms: N9_9  and  C15_15
REMARK    7  A    between atoms: N9_9  and  C27_27
REMARK    8  A    between atoms: N9_9  and  C28_28
REMARK    9  A    between atoms: C16_16  and  C25_25
REMARK   10  A    between atoms: C23_23  and  C30_30
REMARK                            x       y       z     vdW  Elec       q    Type
REMARK                         _______ _______ _______ _____ _____    ______ ____
ROOT
ATOM      1  O3  UNK T   1      40.330  18.576 202.247  0.00  0.00    +0.000 OA
ATOM      2  O6  UNK T   1      40.550  16.401 196.092  0.00  0.00    +0.000 OA
ATOM      3  C11 UNK T   1      40.699  16.048 199.680  0.00  0.00    +0.000 C 
ATOM      4  C12 UNK T   1      38.602  15.769 201.106  0.00  0.00    +0.000 C 
ATOM      5  C13 UNK T   1      39.236  15.512 199.728  0.00  0.00    +0.000 C 
ATOM      6  C14 UNK T   1      40.831  17.540 200.090  0.00  0.00    +0.000 C 
ATOM      7  C15 UNK T   1      41.289  15.796 198.282  0.00  0.00    +0.000 C 
ATOM      8  C16 UNK T   1      37.200  15.136 201.351  0.00  0.00    +0.000 C 
ATOM      9  C17 UNK T   1      38.609  17.253 201.304  0.00  0.00    +0.000 C 
ATOM     10  C18 UNK T   1      39.967  17.854 201.323  0.00  0.00    +0.000 C 
ATOM     11  C19 UNK T   1      40.472  18.508 198.977  0.00  0.00    +0.000 C 
ATOM     12  C20 UNK T   1      36.047  16.052 200.945  0.00  0.00    +0.000 A 
ATOM     13  C21 UNK T   1      40.697  16.751 197.264  0.00  0.00    +0.000 C 
ATOM     14  C22 UNK T   1      37.526  18.043 201.290  0.00  0.00    +0.000 C 
ATOM     15  C23 UNK T   1      40.352  18.149 197.682  0.00  0.00    +0.000 C 
ATOM     16  C24 UNK T   1      36.206  17.457 200.962  0.00  0.00    +0.000 A 
ATOM     17  C25 UNK T   1      37.032  14.809 202.848  0.00  0.00    +0.000 C 
ATOM     18  C26 UNK T   1      34.792  15.502 200.619  0.00  0.00    +0.000 A 
ATOM     19  C29 UNK T   1      35.109  18.263 200.607  0.00  0.00    +0.000 A 
ATOM     20  C31 UNK T   1      33.717  16.320 200.283  0.00  0.00    +0.000 A 
ATOM     21  C32 UNK T   1      33.876  17.699 200.273  0.00  0.00    +0.000 A 
ENDROOT
BRANCH  15  24
ATOM     22  O8  UNK T   1      38.892  19.781 196.805  0.00  0.00    +0.000 OA
ATOM     23  N10 UNK T   1      40.745  19.169 195.571  0.00  0.00    +0.000 N 
ATOM     24  C30 UNK T   1      39.911  19.114 196.659  0.00  0.00    +0.000 C 
ATOM     25  H54 UNK T   1      40.575  19.779 194.776  0.00  0.00    +0.000 HD
ATOM     26  H55 UNK T   1      41.572  18.584 195.521  0.00  0.00    +0.000 HD
ENDBRANCH  15  24
BRANCH   7  27
ATOM     27  N9  UNK T   1      42.737  15.981 198.229  0.00  0.00    +0.000 NA
ATOM     28  C27 UNK T   1      43.411  14.966 199.037  0.00  0.00    +0.000 C 
ATOM     29  C28 UNK T   1      43.206  15.929 196.846  0.00  0.00    +0.000 C 
ENDBRANCH   7  27
BRANCH   6  30
ATOM     30  O1  UNK T   1      42.178  17.825 200.469  0.00  0.00    +0.000 OA
ATOM     31  H41 UNK T   1      42.640  16.992 200.664  0.00  0.00    +0.000 HD
ENDBRANCH   6  30
BRANCH   8  32
ATOM     32  O2  UNK T   1      37.139  13.883 200.662  0.00  0.00    +0.000 OA
ATOM     33  H42 UNK T   1      36.243  13.781 200.298  0.00  0.00    +0.000 HD
ENDBRANCH   8  32
BRANCH  11  34
ATOM     34  O4  UNK T   1      40.294  19.806 199.431  0.00  0.00    +0.000 OA
ATOM     35  H50 UNK T   1      39.480  19.862 199.957  0.00  0.00    +0.000 HD
ENDBRANCH  11  34
BRANCH  14  36
ATOM     36  O5  UNK T   1      37.629  19.409 201.463  0.00  0.00    +0.000 OA
ATOM     37  H51 UNK T   1      36.777  19.833 201.273  0.00  0.00    +0.000 HD
ENDBRANCH  14  36
BRANCH  19  38
ATOM     38  O7  UNK T   1      35.163  19.629 200.592  0.00  0.00    +0.000 OA
ATOM     39  H56 UNK T   1      35.126  19.972 201.501  0.00  0.00    +0.000 HD
ENDBRANCH  19  38
TORSDOF 7
REMARK  Name = KETCA.pdb
REMARK  8 active torsions:
REMARK  status: ('A' for Active; 'I' for Inactive)
REMARK    1  A    between atoms: O5_5  and  C16_16
REMARK    2  A    between atoms: O5_5  and  C24_24
REMARK    3  A    between atoms: N7_7  and  C21_21
REMARK    4  A    between atoms: N9_9  and  C14_14
REMARK    5  A    between atoms: C11_11  and  C14_14
REMARK    6  A    between atoms: C11_11  and  C15_15
REMARK    7  A    between atoms: C12_12  and  C16_16
REMARK    8  A    between atoms: C25_25  and  C36_36
REMARK                            x       y       z     vdW  Elec       q    Type
REMARK                         _______ _______ _______ _____ _____    ______ ____
ROOT
ATOM      1  O3  UNK K   1      37.981  11.369 199.706  0.00  0.00    +0.000 OA
ATOM      2  O4  UNK K   1      38.917   9.461 200.663  0.00  0.00    +0.000 OA
ATOM      3  C11 UNK K   1      39.279  10.796 200.224  0.00  0.00    +0.000 C 
ATOM      4  C12 UNK K   1      37.008  10.258 199.788  0.00  0.00    +0.000 C 
ATOM      5  C13 UNK K   1      37.951   9.068 199.606  0.00  0.00    +0.000 C 
ENDROOT
BRANCH   3   8
ATOM      6 CL1  UNK K   1      37.950  11.359 203.168  0.00  0.00    +0.000 Cl
ATOM      7 CL2  UNK K   1      42.127  14.533 204.210  0.00  0.00    +0.000 Cl
ATOM      8  C15 UNK K   1      39.900  11.761 201.330  0.00  0.00    +0.000 A 
ATOM      9  C22 UNK K   1      39.424  11.993 202.575  0.00  0.00    +0.000 A 
ATOM     10  C23 UNK K   1      41.185  12.396 200.964  0.00  0.00    +0.000 A 
ATOM     11  C32 UNK K   1      40.143  12.914 203.483  0.00  0.00    +0.000 A 
ATOM     12  C33 UNK K   1      41.819  13.224 201.794  0.00  0.00    +0.000 A 
ATOM     13  C34 UNK K   1      41.290  13.476 203.120  0.00  0.00    +0.000 A 
ENDBRANCH   3   8
BRANCH   3  14
ATOM     14  C14 UNK K   1      40.271  10.588 198.984  0.00  0.00    +0.000 C 
BRANCH  14  15
ATOM     15  N9  UNK K   1      39.947  11.316 197.725  0.00  0.00    +0.000 N 
ATOM     16  N10 UNK K   1      39.351  11.627 195.670  0.00  0.00    +0.000 NA
ATOM     17  C28 UNK K   1      40.391  12.596 197.392  0.00  0.00    +0.000 A 
ATOM     18  C29 UNK K   1      39.326  10.755 196.606  0.00  0.00    +0.000 A 
ATOM     19  C35 UNK K   1      40.012  12.797 196.130  0.00  0.00    +0.000 A 
ENDBRANCH  14  15
ENDBRANCH   3  14
BRANCH   4  20
ATOM     20  C16 UNK K   1      35.685  10.405 198.793  0.00  0.00    +0.000 C 
BRANCH  20  21
ATOM     21  O5  UNK K   1      35.956  11.130 197.492  0.00  0.00    +0.000 OA
BRANCH  21  23
ATOM     22  C21 UNK K   1      35.056  15.437 196.971  0.00  0.00    +0.000 A 
ATOM     23  C24 UNK K   1      35.571  12.589 197.322  0.00  0.00    +0.000 A 
ATOM     24  C26 UNK K   1      34.048  14.545 196.964  0.00  0.00    +0.000 A 
ATOM     25  C27 UNK K   1      36.421  14.921 197.170  0.00  0.00    +0.000 A 
ATOM     26  C30 UNK K   1      34.315  13.040 197.161  0.00  0.00    +0.000 A 
ATOM     27  C31 UNK K   1      36.662  13.609 197.322  0.00  0.00    +0.000 A 
BRANCH  22  29
ATOM     28  O6  UNK K   1      33.448  21.521 195.198  0.00  0.00    +0.000 OA
ATOM     29  N7  UNK K   1      34.843  16.896 196.769  0.00  0.00    +0.000 N 
ATOM     30  N8  UNK K   1      34.497  19.746 196.252  0.00  0.00    +0.000 N 
ATOM     31  C17 UNK K   1      33.521  17.446 196.506  0.00  0.00    +0.000 C 
ATOM     32  C18 UNK K   1      35.980  17.814 196.792  0.00  0.00    +0.000 C 
ATOM     33  C19 UNK K   1      33.614  18.774 195.640  0.00  0.00    +0.000 C 
ATOM     34  C20 UNK K   1      35.538  19.289 197.145  0.00  0.00    +0.000 C 
ATOM     35  C25 UNK K   1      34.336  21.142 195.972  0.00  0.00    +0.000 C 
ATOM     36  C36 UNK K   1      35.222  22.170 196.634  0.00  0.00    +0.000 C 
ENDBRANCH  22  29
ENDBRANCH  21  23
ENDBRANCH  20  21
ENDBRANCH   4  20
TORSDOF 7
ENDMDL
MODEL 5
REMARK VINA RESULT:    -3.620      3.374      8.498
REMARK INTER + INTRA:          -7.969
REMARK INTER:                  -6.098
REMARK INTRA:                  -1.872
REMARK UNBOUND:                -1.916
REMARK  Name = TETCA.pdb
REMARK  10 active torsions:
REMARK  status: ('A' for Active; 'I' for Inactive)
REMARK    1  A    between atoms: O1_1  and  C14_14
REMARK    2  A    between atoms: O2_2  and  C16_16
REMARK    3  A    between atoms: O4_4  and  C19_19
REMARK    4  A    between atoms: O5_5  and  C22_22
REMARK    5  A    between atoms: O7_7  and  C29_29
REMARK    6  A    between atoms: N9_9  and  C15_15
REMARK    7  A    between atoms: N9_9  and  C27_27
REMARK    8  A    between atoms: N9_9  and  C28_28
REMARK    9  A    between atoms: C16_16  and  C25_25
REMARK   10  A    between atoms: C23_23  and  C30_30
REMARK                            x       y       z     vdW  Elec       q    Type
REMARK                         _______ _______ _______ _____ _____    ______ ____
ROOT
ATOM      1  O3  UNK T   1      32.488  14.769 195.393  0.00  0.00    +0.000 OA
ATOM      2  O6  UNK T   1      37.786  13.815 199.093  0.00  0.00    +0.000 OA
ATOM      3  C11 UNK T   1      35.310  12.874 196.642  0.00  0.00    +0.000 C 
ATOM      4  C12 UNK T   1      35.515  13.528 194.184  0.00  0.00    +0.000 C 
ATOM      5  C13 UNK T   1      36.289  13.196 195.472  0.00  0.00    +0.000 C 
ATOM      6  C14 UNK T   1      34.251  13.982 196.892  0.00  0.00    +0.000 C 
ATOM      7  C15 UNK T   1      36.119  12.573 197.915  0.00  0.00    +0.000 C 
ATOM      8  C16 UNK T   1      36.366  13.705 192.892  0.00  0.00    +0.000 C 
ATOM      9  C17 UNK T   1      34.677  14.729 194.493  0.00  0.00    +0.000 C 
ATOM     10  C18 UNK T   1      33.674  14.507 195.567  0.00  0.00    +0.000 C 
ATOM     11  C19 UNK T   1      34.781  15.154 197.698  0.00  0.00    +0.000 C 
ATOM     12  C20 UNK T   1      36.829  15.145 192.670  0.00  0.00    +0.000 A 
ATOM     13  C21 UNK T   1      36.708  13.843 198.496  0.00  0.00    +0.000 C 
ATOM     14  C22 UNK T   1      34.882  15.964 194.013  0.00  0.00    +0.000 C 
ATOM     15  C23 UNK T   1      35.936  15.124 198.395  0.00  0.00    +0.000 C 
ATOM     16  C24 UNK T   1      36.077  16.228 193.180  0.00  0.00    +0.000 A 
ATOM     17  C25 UNK T   1      35.538  13.285 191.662  0.00  0.00    +0.000 C 
ATOM     18  C26 UNK T   1      37.973  15.404 191.890  0.00  0.00    +0.000 A 
ATOM     19  C29 UNK T   1      36.525  17.537 192.928  0.00  0.00    +0.000 A 
ATOM     20  C31 UNK T   1      38.391  16.708 191.642  0.00  0.00    +0.000 A 
ATOM     21  C32 UNK T   1      37.670  17.774 192.164  0.00  0.00    +0.000 A 
ENDROOT
BRANCH  15  24
ATOM     22  O8  UNK T   1      36.574  17.393 198.496  0.00  0.00    +0.000 OA
ATOM     23  N10 UNK T   1      36.745  16.104 200.404  0.00  0.00    +0.000 N 
ATOM     24  C30 UNK T   1      36.445  16.324 199.083  0.00  0.00    +0.000 C 
ATOM     25  H54 UNK T   1      37.113  16.828 201.014  0.00  0.00    +0.000 HD
ATOM     26  H55 UNK T   1      36.611  15.189 200.821  0.00  0.00    +0.000 HD
ENDBRANCH  15  24
BRANCH   7  27
ATOM     27  N9  UNK T   1      35.316  11.967 198.974  0.00  0.00    +0.000 NA
ATOM     28  C27 UNK T   1      34.851  10.642 198.567  0.00  0.00    +0.000 C 
ATOM     29  C28 UNK T   1      36.087  11.883 200.212  0.00  0.00    +0.000 C 
ENDBRANCH   7  27
BRANCH   6  30
ATOM     30  O1  UNK T   1      33.146  13.445 197.619  0.00  0.00    +0.000 OA
ATOM     31  H41 UNK T   1      32.330  13.892 197.339  0.00  0.00    +0.000 HD
ENDBRANCH   6  30
BRANCH   8  32
ATOM     32  O2  UNK T   1      37.477  12.803 192.950  0.00  0.00    +0.000 OA
ATOM     33  H42 UNK T   1      37.190  12.001 193.419  0.00  0.00    +0.000 HD
ENDBRANCH   8  32
BRANCH  11  34
ATOM     34  O4  UNK T   1      33.942  16.258 197.654  0.00  0.00    +0.000 OA
ATOM     35  H50 UNK T   1      33.632  16.472 198.548  0.00  0.00    +0.000 HD
ENDBRANCH  11  34
BRANCH  14  36
ATOM     36  O5  UNK T   1      34.066  17.020 194.368  0.00  0.00    +0.000 OA
ATOM     37  H51 UNK T   1      34.122  17.721 193.700  0.00  0.00    +0.000 HD
ENDBRANCH  14  36
BRANCH  19  38
ATOM     38  O7  UNK T   1      35.870  18.649 193.378  0.00  0.00    +0.000 OA
ATOM     39  H56 UNK T   1      36.403  19.094 194.057  0.00  0.00    +0.000 HD
ENDBRANCH  19  38
TORSDOF 7
REMARK  Name = KETCA.pdb
REMARK  8 active torsions:
REMARK  status: ('A' for Active; 'I' for Inactive)
REMARK    1  A    between atoms: O5_5  and  C16_16
REMARK    2  A    between atoms: O5_5  and  C24_24
REMARK    3  A    between atoms: N7_7  and  C21_21
REMARK    4  A    between atoms: N9_9  and  C14_14
REMARK    5  A    between atoms: C11_11  and  C14_14
REMARK    6  A    between atoms: C11_11  and  C15_15
REMARK    7  A    between atoms: C12_12  and  C16_16
REMARK    8  A    between atoms: C25_25  and  C36_36
REMARK                            x       y       z     vdW  Elec       q    Type
REMARK                         _______ _______ _______ _____ _____    ______ ____
ROOT
ATOM      1  O3  UNK K   1      38.791  10.470 193.551  0.00  0.00    +0.000 OA
ATOM      2  O4  UNK K   1      38.539   8.250 192.886  0.00  0.00    +0.000 OA
ATOM      3  C11 UNK K   1      38.008   9.210 193.836  0.00  0.00    +0.000 C 
ATOM      4  C12 UNK K   1      39.792  10.081 192.532  0.00  0.00    +0.000 C 
ATOM      5  C13 UNK K   1      39.980   8.608 192.898  0.00  0.00    +0.000 C 
ENDROOT
BRANCH   3   8
ATOM      6 CL1  UNK K   1      36.392   9.864 191.059  0.00  0.00    +0.000 Cl
ATOM      7 CL2  UNK K   1      31.925  10.178 193.984  0.00  0.00    +0.000 Cl
ATOM      8  C15 UNK K   1      36.445   9.506 193.744  0.00  0.00    +0.000 A 
ATOM      9  C22 UNK K   1      35.718   9.733 192.625  0.00  0.00    +0.000 A 
ATOM     10  C23 UNK K   1      35.713   9.436 195.028  0.00  0.00    +0.000 A 
ATOM     11  C32 UNK K   1      34.261   9.976 192.725  0.00  0.00    +0.000 A 
ATOM     12  C33 UNK K   1      34.400   9.658 195.100  0.00  0.00    +0.000 A 
ATOM     13  C34 UNK K   1      33.636   9.914 193.895  0.00  0.00    +0.000 A 
ENDBRANCH   3   8
BRANCH   3  14
ATOM     14  C14 UNK K   1      38.432   8.666 195.281  0.00  0.00    +0.000 C 
BRANCH  14  15
ATOM     15  N9  UNK K   1      39.188   9.599 196.163  0.00  0.00    +0.000 N 
ATOM     16  N10 UNK K   1      40.840  10.410 197.298  0.00  0.00    +0.000 NA
ATOM     17  C28 UNK K   1      38.620  10.499 197.065  0.00  0.00    +0.000 A 
ATOM     18  C29 UNK K   1      40.570   9.571 196.371  0.00  0.00    +0.000 A 
ATOM     19  C35 UNK K   1      39.638  11.013 197.757  0.00  0.00    +0.000 A 
ENDBRANCH  14  15
ENDBRANCH   3  14
BRANCH   4  20
ATOM     20  C16 UNK K   1      41.123  11.071 192.439  0.00  0.00    +0.000 C 
BRANCH  20  21
ATOM     21  O5  UNK K   1      41.493  11.749 193.740  0.00  0.00    +0.000 OA
BRANCH  21  23
ATOM     22  C21 UNK K   1      40.404  15.956 194.604  0.00  0.00    +0.000 A 
ATOM     23  C24 UNK K   1      41.162  13.213 193.973  0.00  0.00    +0.000 A 
ATOM     24  C26 UNK K   1      41.350  15.694 193.682  0.00  0.00    +0.000 A 
ATOM     25  C27 UNK K   1      39.766  14.810 195.272  0.00  0.00    +0.000 A 
ATOM     26  C30 UNK K   1      41.745  14.244 193.337  0.00  0.00    +0.000 A 
ATOM     27  C31 UNK K   1      40.120  13.545 194.990  0.00  0.00    +0.000 A 
BRANCH  22  29
ATOM     28  O6  UNK K   1      39.789  22.245 196.284  0.00  0.00    +0.000 OA
ATOM     29  N7  UNK K   1      40.005  17.341 194.977  0.00  0.00    +0.000 N 
ATOM     30  N8  UNK K   1      39.276  20.031 195.837  0.00  0.00    +0.000 N 
ATOM     31  C17 UNK K   1      40.642  18.507 194.382  0.00  0.00    +0.000 C 
ATOM     32  C18 UNK K   1      38.976  17.560 195.993  0.00  0.00    +0.000 C 
ATOM     33  C19 UNK K   1      40.620  19.743 195.378  0.00  0.00    +0.000 C 
ATOM     34  C20 UNK K   1      38.290  18.974 195.840  0.00  0.00    +0.000 C 
ATOM     35  C25 UNK K   1      38.934  21.349 196.281  0.00  0.00    +0.000 C 
ATOM     36  C36 UNK K   1      37.527  21.675 196.723  0.00  0.00    +0.000 C 
ENDBRANCH  22  29
ENDBRANCH  21  23
ENDBRANCH  20  21
ENDBRANCH   4  20
TORSDOF 7
ENDMDL
MODEL 6
REMARK VINA RESULT:    -3.618      3.568      6.610
REMARK INTER + INTRA:          -7.966
REMARK INTER:                  -6.071
REMARK INTRA:                  -1.894
REMARK UNBOUND:                -1.916
REMARK  Name = TETCA.pdb
REMARK  10 active torsions:
REMARK  status: ('A' for Active; 'I' for Inactive)
REMARK    1  A    between atoms: O1_1  and  C14_14
REMARK    2  A    between atoms: O2_2  and  C16_16
REMARK    3  A    between atoms: O4_4  and  C19_19
REMARK    4  A    between atoms: O5_5  and  C22_22
REMARK    5  A    between atoms: O7_7  and  C29_29
REMARK    6  A    between atoms: N9_9  and  C15_15
REMARK    7  A    between atoms: N9_9  and  C27_27
REMARK    8  A    between atoms: N9_9  and  C28_28
REMARK    9  A    between atoms: C16_16  and  C25_25
REMARK   10  A    between atoms: C23_23  and  C30_30
REMARK                            x       y       z     vdW  Elec       q    Type
REMARK                         _______ _______ _______ _____ _____    ______ ____
ROOT
ATOM      1  O3  UNK T   1      38.515  18.561 202.896  0.00  0.00    +0.000 OA
ATOM      2  O6  UNK T   1      32.993  15.404 201.413  0.00  0.00    +0.000 OA
ATOM      3  C11 UNK T   1      35.199  18.259 201.473  0.00  0.00    +0.000 C 
ATOM      4  C12 UNK T   1      37.039  18.590 199.736  0.00  0.00    +0.000 C 
ATOM      5  C13 UNK T   1      35.646  17.994 200.002  0.00  0.00    +0.000 C 
ATOM      6  C14 UNK T   1      36.227  17.780 202.533  0.00  0.00    +0.000 C 
ATOM      7  C15 UNK T   1      33.816  17.627 201.707  0.00  0.00    +0.000 C 
ATOM      8  C16 UNK T   1      37.539  18.547 198.262  0.00  0.00    +0.000 C 
ATOM      9  C17 UNK T   1      37.977  17.911 200.685  0.00  0.00    +0.000 C 
ATOM     10  C18 UNK T   1      37.662  18.145 202.118  0.00  0.00    +0.000 C 
ATOM     11  C19 UNK T   1      36.159  16.290 202.813  0.00  0.00    +0.000 C 
ATOM     12  C20 UNK T   1      38.312  17.273 197.926  0.00  0.00    +0.000 A 
ATOM     13  C21 UNK T   1      33.918  16.118 201.802  0.00  0.00    +0.000 C 
ATOM     14  C22 UNK T   1      38.918  17.020 200.342  0.00  0.00    +0.000 C 
ATOM     15  C23 UNK T   1      35.131  15.502 202.434  0.00  0.00    +0.000 C 
ATOM     16  C24 UNK T   1      39.010  16.569 198.935  0.00  0.00    +0.000 A 
ATOM     17  C25 UNK T   1      38.473  19.744 197.995  0.00  0.00    +0.000 C 
ATOM     18  C26 UNK T   1      38.394  16.830 196.591  0.00  0.00    +0.000 A 
ATOM     19  C29 UNK T   1      39.731  15.416 198.576  0.00  0.00    +0.000 A 
ATOM     20  C31 UNK T   1      39.124  15.693 196.257  0.00  0.00    +0.000 A 
ATOM     21  C32 UNK T   1      39.789  14.984 197.249  0.00  0.00    +0.000 A 
ENDROOT
BRANCH  15  24
ATOM     22  O8  UNK T   1      36.102  13.360 202.261  0.00  0.00    +0.000 OA
ATOM     23  N10 UNK T   1      34.059  13.573 203.317  0.00  0.00    +0.000 N 
ATOM     24  C30 UNK T   1      35.163  14.045 202.652  0.00  0.00    +0.000 C 
ATOM     25  H54 UNK T   1      33.927  12.590 203.537  0.00  0.00    +0.000 HD
ATOM     26  H55 UNK T   1      33.320  14.203 203.610  0.00  0.00    +0.000 HD
ENDBRANCH  15  24
BRANCH   7  27
ATOM     27  N9  UNK T   1      33.183  18.078 202.943  0.00  0.00    +0.000 NA
ATOM     28  C27 UNK T   1      32.865  19.502 202.864  0.00  0.00    +0.000 C 
ATOM     29  C28 UNK T   1      31.976  17.297 203.210  0.00  0.00    +0.000 C 
ENDBRANCH   7  27
BRANCH   6  30
ATOM     30  O1  UNK T   1      35.994  18.446 203.774  0.00  0.00    +0.000 OA
ATOM     31  H41 UNK T   1      35.945  17.788 204.488  0.00  0.00    +0.000 HD
ENDBRANCH   6  30
BRANCH   8  32
ATOM     32  O2  UNK T   1      36.414  18.720 197.394  0.00  0.00    +0.000 OA
ATOM     33  H42 UNK T   1      36.412  17.988 196.753  0.00  0.00    +0.000 HD
ENDBRANCH   8  32
BRANCH  11  34
ATOM     34  O4  UNK T   1      37.262  15.824 203.513  0.00  0.00    +0.000 OA
ATOM     35  H50 UNK T   1      37.880  16.554 203.678  0.00  0.00    +0.000 HD
ENDBRANCH  11  34
BRANCH  14  36
ATOM     36  O5  UNK T   1      39.729  16.428 201.290  0.00  0.00    +0.000 OA
ATOM     37  H51 UNK T   1      40.651  16.437 200.990  0.00  0.00    +0.000 HD
ENDBRANCH  14  36
BRANCH  19  38
ATOM     38  O7  UNK T   1      40.436  14.668 199.477  0.00  0.00    +0.000 OA
ATOM     39  H56 UNK T   1      40.738  13.844 199.058  0.00  0.00    +0.000 HD
ENDBRANCH  19  38
TORSDOF 7
REMARK  Name = KETCA.pdb
REMARK  8 active torsions:
REMARK  status: ('A' for Active; 'I' for Inactive)
REMARK    1  A    between atoms: O5_5  and  C16_16
REMARK    2  A    between atoms: O5_5  and  C24_24
REMARK    3  A    between atoms: N7_7  and  C21_21
REMARK    4  A    between atoms: N9_9  and  C14_14
REMARK    5  A    between atoms: C11_11  and  C14_14
REMARK    6  A    between atoms: C11_11  and  C15_15
REMARK    7  A    between atoms: C12_12  and  C16_16
REMARK    8  A    between atoms: C25_25  and  C36_36
REMARK                            x       y       z     vdW  Elec       q    Type
REMARK                         _______ _______ _______ _____ _____    ______ ____
ROOT
ATOM      1  O3  UNK K   1      33.995  19.633 196.499  0.00  0.00    +0.000 OA
ATOM      2  O4  UNK K   1      33.155  21.749 195.997  0.00  0.00    +0.000 OA
ATOM      3  C11 UNK K   1      33.405  20.873 197.128  0.00  0.00    +0.000 C 
ATOM      4  C12 UNK K   1      33.922  19.867 195.040  0.00  0.00    +0.000 C 
ATOM      5  C13 UNK K   1      32.690  20.772 194.981  0.00  0.00    +0.000 C 
ENDROOT
BRANCH   3   8
ATOM      6 CL1  UNK K   1      36.332  22.235 196.551  0.00  0.00    +0.000 Cl
ATOM      7 CL2  UNK K   1      36.776  22.999 201.826  0.00  0.00    +0.000 Cl
ATOM      8  C15 UNK K   1      34.383  21.434 198.255  0.00  0.00    +0.000 A 
ATOM      9  C22 UNK K   1      35.575  22.048 198.074  0.00  0.00    +0.000 A 
ATOM     10  C23 UNK K   1      33.870  21.338 199.639  0.00  0.00    +0.000 A 
ATOM     11  C32 UNK K   1      36.348  22.523 199.243  0.00  0.00    +0.000 A 
ATOM     12  C33 UNK K   1      34.581  21.771 200.681  0.00  0.00    +0.000 A 
ATOM     13  C34 UNK K   1      35.863  22.413 200.474  0.00  0.00    +0.000 A 
ENDBRANCH   3   8
BRANCH   3  14
ATOM     14  C14 UNK K   1      31.961  20.505 197.714  0.00  0.00    +0.000 C 
BRANCH  14  15
ATOM     15  N9  UNK K   1      31.630  19.058 197.844  0.00  0.00    +0.000 N 
ATOM     16  N10 UNK K   1      30.635  17.175 197.471  0.00  0.00    +0.000 NA
ATOM     17  C28 UNK K   1      31.900  18.262 198.957  0.00  0.00    +0.000 A 
ATOM     18  C29 UNK K   1      30.820  18.335 196.964  0.00  0.00    +0.000 A 
ATOM     19  C35 UNK K   1      31.301  17.093 198.724  0.00  0.00    +0.000 A 
ENDBRANCH  14  15
ENDBRANCH   3  14
BRANCH   4  20
ATOM     20  C16 UNK K   1      33.967  18.495 194.104  0.00  0.00    +0.000 C 
BRANCH  20  21
ATOM     21  O5  UNK K   1      33.361  17.271 194.756  0.00  0.00    +0.000 OA
BRANCH  21  23
ATOM     22  C21 UNK K   1      35.860  14.132 196.634  0.00  0.00    +0.000 A 
ATOM     23  C24 UNK K   1      34.248  16.178 195.328  0.00  0.00    +0.000 A 
ATOM     24  C26 UNK K   1      35.783  14.199 195.292  0.00  0.00    +0.000 A 
ATOM     25  C27 UNK K   1      35.109  15.131 197.413  0.00  0.00    +0.000 A 
ATOM     26  C30 UNK K   1      34.941  15.288 194.597  0.00  0.00    +0.000 A 
ATOM     27  C31 UNK K   1      34.357  16.069 196.813  0.00  0.00    +0.000 A 
BRANCH  22  29
ATOM     28  O6  UNK K   1      38.898   8.826 198.953  0.00  0.00    +0.000 OA
ATOM     29  N7  UNK K   1      36.650  13.088 197.344  0.00  0.00    +0.000 N 
ATOM     30  N8  UNK K   1      38.075  10.983 198.776  0.00  0.00    +0.000 N 
ATOM     31  C17 UNK K   1      37.447  12.108 196.620  0.00  0.00    +0.000 C 
ATOM     32  C18 UNK K   1      36.607  13.000 198.803  0.00  0.00    +0.000 C 
ATOM     33  C19 UNK K   1      37.571  10.752 197.437  0.00  0.00    +0.000 C 
ATOM     34  C20 UNK K   1      37.886  12.280 199.386  0.00  0.00    +0.000 C 
ATOM     35  C25 UNK K   1      38.751   9.936 199.481  0.00  0.00    +0.000 C 
ATOM     36  C36 UNK K   1      39.318  10.174 200.860  0.00  0.00    +0.000 C 
ENDBRANCH  22  29
ENDBRANCH  21  23
ENDBRANCH  20  21
ENDBRANCH   4  20
TORSDOF 7
ENDMDL
MODEL 7
REMARK VINA RESULT:    -3.615      2.734      7.236
REMARK INTER + INTRA:          -7.962
REMARK INTER:                  -6.143
REMARK INTRA:                  -1.819
REMARK UNBOUND:                -1.916
REMARK  Name = TETCA.pdb
REMARK  10 active torsions:
REMARK  status: ('A' for Active; 'I' for Inactive)
REMARK    1  A    between atoms: O1_1  and  C14_14
REMARK    2  A    between atoms: O2_2  and  C16_16
REMARK    3  A    between atoms: O4_4  and  C19_19
REMARK    4  A    between atoms: O5_5  and  C22_22
REMARK    5  A    between atoms: O7_7  and  C29_29
REMARK    6  A    between atoms: N9_9  and  C15_15
REMARK    7  A    between atoms: N9_9  and  C27_27
REMARK    8  A    between atoms: N9_9  and  C28_28
REMARK    9  A    between atoms: C16_16  and  C25_25
REMARK   10  A    between atoms: C23_23  and  C30_30
REMARK                            x       y       z     vdW  Elec       q    Type
REMARK                         _______ _______ _______ _____ _____    ______ ____
ROOT
ATOM      1  O3  UNK T   1      42.055   8.851 199.509  0.00  0.00    +0.000 OA
ATOM      2  O6  UNK T   1      38.712  10.242 194.073  0.00  0.00    +0.000 OA
ATOM      3  C11 UNK T   1      39.050   9.276 197.533  0.00  0.00    +0.000 C 
ATOM      4  C12 UNK T   1      39.304  10.992 199.404  0.00  0.00    +0.000 C 
ATOM      5  C13 UNK T   1      38.710  10.721 198.011  0.00  0.00    +0.000 C 
ATOM      6  C14 UNK T   1      40.567   8.946 197.572  0.00  0.00    +0.000 C 
ATOM      7  C15 UNK T   1      38.463   9.052 196.129  0.00  0.00    +0.000 C 
ATOM      8  C16 UNK T   1      38.901  12.337 200.077  0.00  0.00    +0.000 C 
ATOM      9  C17 UNK T   1      40.787  10.834 199.269  0.00  0.00    +0.000 C 
ATOM     10  C18 UNK T   1      41.216   9.471 198.864  0.00  0.00    +0.000 C 
ATOM     11  C19 UNK T   1      41.335   9.489 196.380  0.00  0.00    +0.000 C 
ATOM     12  C20 UNK T   1      39.851  13.486 199.741  0.00  0.00    +0.000 A 
ATOM     13  C21 UNK T   1      39.264   9.798 195.081  0.00  0.00    +0.000 C 
ATOM     14  C22 UNK T   1      41.681  11.832 199.319  0.00  0.00    +0.000 C 
ATOM     15  C23 UNK T   1      40.748   9.936 195.250  0.00  0.00    +0.000 C 
ATOM     16  C24 UNK T   1      41.203  13.229 199.419  0.00  0.00    +0.000 A 
ATOM     17  C25 UNK T   1      38.894  12.171 201.610  0.00  0.00    +0.000 C 
ATOM     18  C26 UNK T   1      39.400  14.819 199.820  0.00  0.00    +0.000 A 
ATOM     19  C29 UNK T   1      42.048  14.319 199.143  0.00  0.00    +0.000 A 
ATOM     20  C31 UNK T   1      40.257  15.883 199.555  0.00  0.00    +0.000 A 
ATOM     21  C32 UNK T   1      41.580  15.633 199.212  0.00  0.00    +0.000 A 
ENDROOT
BRANCH  15  24
ATOM     22  O8  UNK T   1      42.346  11.435 194.379  0.00  0.00    +0.000 OA
ATOM     23  N10 UNK T   1      41.274   9.989 192.933  0.00  0.00    +0.000 N 
ATOM     24  C30 UNK T   1      41.540  10.537 194.163  0.00  0.00    +0.000 C 
ATOM     25  H54 UNK T   1      41.732  10.299 192.081  0.00  0.00    +0.000 HD
ATOM     26  H55 UNK T   1      40.591   9.246 192.832  0.00  0.00    +0.000 HD
ENDBRANCH  15  24
BRANCH   7  27
ATOM     27  N9  UNK T   1      38.462   7.648 195.727  0.00  0.00    +0.000 NA
ATOM     28  C27 UNK T   1      37.570   6.871 196.586  0.00  0.00    +0.000 C 
ATOM     29  C28 UNK T   1      38.063   7.521 194.326  0.00  0.00    +0.000 C 
ENDBRANCH   7  27
BRANCH   6  30
ATOM     30  O1  UNK T   1      40.759   7.532 197.580  0.00  0.00    +0.000 OA
ATOM     31  H41 UNK T   1      41.418   7.301 198.257  0.00  0.00    +0.000 HD
ENDBRANCH   6  30
BRANCH   8  32
ATOM     32  O2  UNK T   1      37.554  12.648 199.706  0.00  0.00    +0.000 OA
ATOM     33  H42 UNK T   1      37.106  13.029 200.480  0.00  0.00    +0.000 HD
ENDBRANCH   8  32
BRANCH  11  34
ATOM     34  O4  UNK T   1      42.709   9.463 196.569  0.00  0.00    +0.000 OA
ATOM     35  H50 UNK T   1      42.919   8.987 197.389  0.00  0.00    +0.000 HD
ENDBRANCH  11  34
BRANCH  14  36
ATOM     36  O5  UNK T   1      43.033  11.595 199.166  0.00  0.00    +0.000 OA
ATOM     37  H51 UNK T   1      43.544  12.274 199.633  0.00  0.00    +0.000 HD
ENDBRANCH  14  36
BRANCH  19  38
ATOM     38  O7  UNK T   1      43.369  14.175 198.820  0.00  0.00    +0.000 OA
ATOM     39  H56 UNK T   1      43.542  13.262 198.536  0.00  0.00    +0.000 HD
ENDBRANCH  19  38
TORSDOF 7
REMARK  Name = KETCA.pdb
REMARK  8 active torsions:
REMARK  status: ('A' for Active; 'I' for Inactive)
REMARK    1  A    between atoms: O5_5  and  C16_16
REMARK    2  A    between atoms: O5_5  and  C24_24
REMARK    3  A    between atoms: N7_7  and  C21_21
REMARK    4  A    between atoms: N9_9  and  C14_14
REMARK    5  A    between atoms: C11_11  and  C14_14
REMARK    6  A    between atoms: C11_11  and  C15_15
REMARK    7  A    between atoms: C12_12  and  C16_16
REMARK    8  A    between atoms: C25_25  and  C36_36
REMARK                            x       y       z     vdW  Elec       q    Type
REMARK                         _______ _______ _______ _____ _____    ______ ____
ROOT
ATOM      1  O3  UNK K   1      34.964  12.102 198.999  0.00  0.00    +0.000 OA
ATOM      2  O4  UNK K   1      33.166  11.211 200.186  0.00  0.00    +0.000 OA
ATOM      3  C11 UNK K   1      34.326  10.798 199.417  0.00  0.00    +0.000 C 
ATOM      4  C12 UNK K   1      34.038  13.154 199.474  0.00  0.00    +0.000 C 
ATOM      5  C13 UNK K   1      32.715  12.391 199.406  0.00  0.00    +0.000 C 
ENDROOT
BRANCH   3   8
ATOM      6 CL1  UNK K   1      35.492  11.397 202.422  0.00  0.00    +0.000 Cl
ATOM      7 CL2  UNK K   1      38.355   6.901 201.973  0.00  0.00    +0.000 Cl
ATOM      8  C15 UNK K   1      35.390   9.886 200.175  0.00  0.00    +0.000 A 
ATOM      9  C22 UNK K   1      35.868  10.056 201.429  0.00  0.00    +0.000 A 
ATOM     10  C23 UNK K   1      35.824   8.679 199.439  0.00  0.00    +0.000 A 
ATOM     11  C32 UNK K   1      36.849   9.095 201.984  0.00  0.00    +0.000 A 
ATOM     12  C33 UNK K   1      36.709   7.824 199.954  0.00  0.00    +0.000 A 
ATOM     13  C34 UNK K   1      37.225   8.026 201.293  0.00  0.00    +0.000 A 
ENDBRANCH   3   8
BRANCH   3  14
ATOM     14  C14 UNK K   1      33.742  10.080 198.110  0.00  0.00    +0.000 C 
BRANCH  14  15
ATOM     15  N9  UNK K   1      34.187  10.606 196.789  0.00  0.00    +0.000 N 
ATOM     16  N10 UNK K   1      34.068  11.567 194.856  0.00  0.00    +0.000 NA
ATOM     17  C28 UNK K   1      35.314  10.181 196.086  0.00  0.00    +0.000 A 
ATOM     18  C29 UNK K   1      33.438  11.449 195.964  0.00  0.00    +0.000 A 
ATOM     19  C35 UNK K   1      35.252  10.784 194.898  0.00  0.00    +0.000 A 
ENDBRANCH  14  15
ENDBRANCH   3  14
BRANCH   4  20
ATOM     20  C16 UNK K   1      34.174  14.615 198.693  0.00  0.00    +0.000 C 
BRANCH  20  21
ATOM     21  O5  UNK K   1      34.678  14.521 197.269  0.00  0.00    +0.000 OA
BRANCH  21  23
ATOM     22  C21 UNK K   1      38.879  15.425 196.189  0.00  0.00    +0.000 A 
ATOM     23  C24 UNK K   1      36.107  14.905 196.925  0.00  0.00    +0.000 A 
ATOM     24  C26 UNK K   1      38.053  16.432 196.533  0.00  0.00    +0.000 A 
ATOM     25  C27 UNK K   1      38.332  14.058 196.208  0.00  0.00    +0.000 A 
ATOM     26  C30 UNK K   1      36.590  16.159 196.934  0.00  0.00    +0.000 A 
ATOM     27  C31 UNK K   1      37.052  13.817 196.537  0.00  0.00    +0.000 A 
BRANCH  22  29
ATOM     28  O6  UNK K   1      44.672  17.306 193.811  0.00  0.00    +0.000 OA
ATOM     29  N7  UNK K   1      40.293  15.647 195.781  0.00  0.00    +0.000 N 
ATOM     30  N8  UNK K   1      43.028  16.047 194.849  0.00  0.00    +0.000 N 
ATOM     31  C17 UNK K   1      40.895  16.973 195.796  0.00  0.00    +0.000 C 
ATOM     32  C18 UNK K   1      41.106  14.526 195.313  0.00  0.00    +0.000 C 
ATOM     33  C19 UNK K   1      42.039  17.096 194.703  0.00  0.00    +0.000 C 
ATOM     34  C20 UNK K   1      42.651  14.806 195.487  0.00  0.00    +0.000 C 
ATOM     35  C25 UNK K   1      44.362  16.243 194.365  0.00  0.00    +0.000 C 
ATOM     36  C36 UNK K   1      45.415  15.175 194.547  0.00  0.00    +0.000 C 
ENDBRANCH  22  29
ENDBRANCH  21  23
ENDBRANCH  20  21
ENDBRANCH   4  20
TORSDOF 7
ENDMDL
MODEL 8
REMARK VINA RESULT:    -3.614      3.095      6.739
REMARK INTER + INTRA:          -7.959
REMARK INTER:                  -6.053
REMARK INTRA:                  -1.906
REMARK UNBOUND:                -1.916
REMARK  Name = TETCA.pdb
REMARK  10 active torsions:
REMARK  status: ('A' for Active; 'I' for Inactive)
REMARK    1  A    between atoms: O1_1  and  C14_14
REMARK    2  A    between atoms: O2_2  and  C16_16
REMARK    3  A    between atoms: O4_4  and  C19_19
REMARK    4  A    between atoms: O5_5  and  C22_22
REMARK    5  A    between atoms: O7_7  and  C29_29
REMARK    6  A    between atoms: N9_9  and  C15_15
REMARK    7  A    between atoms: N9_9  and  C27_27
REMARK    8  A    between atoms: N9_9  and  C28_28
REMARK    9  A    between atoms: C16_16  and  C25_25
REMARK   10  A    between atoms: C23_23  and  C30_30
REMARK                            x       y       z     vdW  Elec       q    Type
REMARK                         _______ _______ _______ _____ _____    ______ ____
ROOT
ATOM      1  O3  UNK T   1      38.217  13.812 199.336  0.00  0.00    +0.000 OA
ATOM      2  O6  UNK T   1      39.063  15.299 193.032  0.00  0.00    +0.000 OA
ATOM      3  C11 UNK T   1      40.164  14.309 196.323  0.00  0.00    +0.000 C 
ATOM      4  C12 UNK T   1      40.084  11.883 197.109  0.00  0.00    +0.000 C 
ATOM      5  C13 UNK T   1      40.234  12.812 195.892  0.00  0.00    +0.000 C 
ATOM      6  C14 UNK T   1      38.896  14.662 197.147  0.00  0.00    +0.000 C 
ATOM      7  C15 UNK T   1      40.292  15.204 195.079  0.00  0.00    +0.000 C 
ATOM      8  C16 UNK T   1      40.302  10.363 196.850  0.00  0.00    +0.000 C 
ATOM      9  C17 UNK T   1      38.742  12.180 197.704  0.00  0.00    +0.000 C 
ATOM     10  C18 UNK T   1      38.593  13.576 198.192  0.00  0.00    +0.000 C 
ATOM     11  C19 UNK T   1      37.660  14.882 196.292  0.00  0.00    +0.000 C 
ATOM     12  C20 UNK T   1      39.019   9.628 196.464  0.00  0.00    +0.000 A 
ATOM     13  C21 UNK T   1      39.019  15.176 194.257  0.00  0.00    +0.000 C 
ATOM     14  C22 UNK T   1      37.678  11.366 197.666  0.00  0.00    +0.000 C 
ATOM     15  C23 UNK T   1      37.696  15.063 194.956  0.00  0.00    +0.000 C 
ATOM     16  C24 UNK T   1      37.761  10.100 196.903  0.00  0.00    +0.000 A 
ATOM     17  C25 UNK T   1      40.860   9.693 198.122  0.00  0.00    +0.000 C 
ATOM     18  C26 UNK T   1      39.089   8.430 195.727  0.00  0.00    +0.000 A 
ATOM     19  C29 UNK T   1      36.609   9.376 196.547  0.00  0.00    +0.000 A 
ATOM     20  C31 UNK T   1      37.936   7.723 195.397  0.00  0.00    +0.000 A 
ATOM     21  C32 UNK T   1      36.696   8.198 195.803  0.00  0.00    +0.000 A 
ENDROOT
BRANCH  15  24
ATOM     22  O8  UNK T   1      35.573  14.331 194.233  0.00  0.00    +0.000 OA
ATOM     23  N10 UNK T   1      36.418  16.305 193.382  0.00  0.00    +0.000 N 
ATOM     24  C30 UNK T   1      36.457  15.179 194.167  0.00  0.00    +0.000 C 
ATOM     25  H54 UNK T   1      35.635  16.526 192.773  0.00  0.00    +0.000 HD
ATOM     26  H55 UNK T   1      37.190  16.963 193.380  0.00  0.00    +0.000 HD
ENDBRANCH  15  24
BRANCH   7  27
ATOM     27  N9  UNK T   1      40.544  16.605 195.405  0.00  0.00    +0.000 NA
ATOM     28  C27 UNK T   1      41.848  16.753 196.049  0.00  0.00    +0.000 C 
ATOM     29  C28 UNK T   1      40.471  17.429 194.199  0.00  0.00    +0.000 C 
ENDBRANCH   7  27
BRANCH   6  30
ATOM     30  O1  UNK T   1      39.111  15.868 197.881  0.00  0.00    +0.000 OA
ATOM     31  H41 UNK T   1      38.602  15.835 198.708  0.00  0.00    +0.000 HD
ENDBRANCH   6  30
BRANCH   8  32
ATOM     32  O2  UNK T   1      41.312  10.212 195.847  0.00  0.00    +0.000 OA
ATOM     33  H42 UNK T   1      40.871  10.108 194.987  0.00  0.00    +0.000 HD
ENDBRANCH   8  32
BRANCH  11  34
ATOM     34  O4  UNK T   1      36.489  14.889 197.034  0.00  0.00    +0.000 OA
ATOM     35  H50 UNK T   1      36.134  15.792 197.080  0.00  0.00    +0.000 HD
ENDBRANCH  11  34
BRANCH  14  36
ATOM     36  O5  UNK T   1      36.470  11.732 198.228  0.00  0.00    +0.000 OA
ATOM     37  H51 UNK T   1      35.752  11.590 197.592  0.00  0.00    +0.000 HD
ENDBRANCH  14  36
BRANCH  19  38
ATOM     38  O7  UNK T   1      35.348   9.752 196.921  0.00  0.00    +0.000 OA
ATOM     39  H56 UNK T   1      35.162   9.434 197.821  0.00  0.00    +0.000 HD
ENDBRANCH  19  38
TORSDOF 7
REMARK  Name = KETCA.pdb
REMARK  8 active torsions:
REMARK  status: ('A' for Active; 'I' for Inactive)
REMARK    1  A    between atoms: O5_5  and  C16_16
REMARK    2  A    between atoms: O5_5  and  C24_24
REMARK    3  A    between atoms: N7_7  and  C21_21
REMARK    4  A    between atoms: N9_9  and  C14_14
REMARK    5  A    between atoms: C11_11  and  C14_14
REMARK    6  A    between atoms: C11_11  and  C15_15
REMARK    7  A    between atoms: C12_12  and  C16_16
REMARK    8  A    between atoms: C25_25  and  C36_36
REMARK                            x       y       z     vdW  Elec       q    Type
REMARK                         _______ _______ _______ _____ _____    ______ ____
ROOT
ATOM      1  O3  UNK K   1      43.542  10.758 194.418  0.00  0.00    +0.000 OA
ATOM      2  O4  UNK K   1      45.812  10.744 194.946  0.00  0.00    +0.000 OA
ATOM      3  C11 UNK K   1      44.641  11.597 195.025  0.00  0.00    +0.000 C 
ATOM      4  C12 UNK K   1      44.215   9.531 193.935  0.00  0.00    +0.000 C 
ATOM      5  C13 UNK K   1      45.602  10.096 193.627  0.00  0.00    +0.000 C 
ENDROOT
BRANCH   3   8
ATOM      6 CL1  UNK K   1      44.406   9.645 197.649  0.00  0.00    +0.000 Cl
ATOM      7 CL2  UNK K   1      43.066  13.978 200.485  0.00  0.00    +0.000 Cl
ATOM      8  C15 UNK K   1      44.216  12.083 196.482  0.00  0.00    +0.000 A 
ATOM      9  C22 UNK K   1      44.150  11.336 197.609  0.00  0.00    +0.000 A 
ATOM     10  C23 UNK K   1      43.953  13.533 196.612  0.00  0.00    +0.000 A 
ATOM     11  C32 UNK K   1      43.749  11.960 198.889  0.00  0.00    +0.000 A 
ATOM     12  C33 UNK K   1      43.592  14.079 197.774  0.00  0.00    +0.000 A 
ATOM     13  C34 UNK K   1      43.511  13.265 198.969  0.00  0.00    +0.000 A 
ENDBRANCH   3   8
BRANCH   3  14
ATOM     14  C14 UNK K   1      44.937  12.828 194.044  0.00  0.00    +0.000 C 
BRANCH  14  15
ATOM     15  N9  UNK K   1      43.924  13.116 192.991  0.00  0.00    +0.000 N 
ATOM     16  N10 UNK K   1      43.063  13.301 191.016  0.00  0.00    +0.000 NA
ATOM     17  C28 UNK K   1      42.819  13.954 193.138  0.00  0.00    +0.000 A 
ATOM     18  C29 UNK K   1      44.038  12.760 191.644  0.00  0.00    +0.000 A 
ATOM     19  C35 UNK K   1      42.276  14.058 191.924  0.00  0.00    +0.000 A 
ENDBRANCH  14  15
ENDBRANCH   3  14
BRANCH   4  20
ATOM     20  C16 UNK K   1      43.396   8.698 192.754  0.00  0.00    +0.000 C 
BRANCH  20  21
ATOM     21  O5  UNK K   1      42.584   9.569 191.820  0.00  0.00    +0.000 OA
BRANCH  21  23
ATOM     22  C21 UNK K   1      38.202   9.894 192.383  0.00  0.00    +0.000 A 
ATOM     23  C24 UNK K   1      41.092   9.756 192.034  0.00  0.00    +0.000 A 
ATOM     24  C26 UNK K   1      38.998  10.893 192.808  0.00  0.00    +0.000 A 
ATOM     25  C27 UNK K   1      38.842   8.740 191.731  0.00  0.00    +0.000 A 
ATOM     26  C30 UNK K   1      40.526  10.829 192.615  0.00  0.00    +0.000 A 
ATOM     27  C31 UNK K   1      40.175   8.670 191.578  0.00  0.00    +0.000 A 
BRANCH  22  29
ATOM     28  O6  UNK K   1      31.682   9.459 192.137  0.00  0.00    +0.000 OA
ATOM     29  N7  UNK K   1      36.724   9.910 192.564  0.00  0.00    +0.000 N 
ATOM     30  N8  UNK K   1      33.820  10.036 192.813  0.00  0.00    +0.000 N 
ATOM     31  C17 UNK K   1      35.902   8.751 192.247  0.00  0.00    +0.000 C 
ATOM     32  C18 UNK K   1      36.055  11.122 193.034  0.00  0.00    +0.000 C 
ATOM     33  C19 UNK K   1      34.438   9.187 191.815  0.00  0.00    +0.000 C 
ATOM     34  C20 UNK K   1      34.661  10.803 193.704  0.00  0.00    +0.000 C 
ATOM     35  C25 UNK K   1      32.393  10.112 192.912  0.00  0.00    +0.000 C 
ATOM     36  C36 UNK K   1      31.735  10.960 193.974  0.00  0.00    +0.000 C 
ENDBRANCH  22  29
ENDBRANCH  21  23
ENDBRANCH  20  21
ENDBRANCH   4  20
TORSDOF 7
ENDMDL
MODEL 9
REMARK VINA RESULT:    -3.613      3.310      7.059
REMARK INTER + INTRA:          -7.958
REMARK INTER:                  -6.019
REMARK INTRA:                  -1.939
REMARK UNBOUND:                -1.916
REMARK  Name = TETCA.pdb
REMARK  10 active torsions:
REMARK  status: ('A' for Active; 'I' for Inactive)
REMARK    1  A    between atoms: O1_1  and  C14_14
REMARK    2  A    between atoms: O2_2  and  C16_16
REMARK    3  A    between atoms: O4_4  and  C19_19
REMARK    4  A    between atoms: O5_5  and  C22_22
REMARK    5  A    between atoms: O7_7  and  C29_29
REMARK    6  A    between atoms: N9_9  and  C15_15
REMARK    7  A    between atoms: N9_9  and  C27_27
REMARK    8  A    between atoms: N9_9  and  C28_28
REMARK    9  A    between atoms: C16_16  and  C25_25
REMARK   10  A    between atoms: C23_23  and  C30_30
REMARK                            x       y       z     vdW  Elec       q    Type
REMARK                         _______ _______ _______ _____ _____    ______ ____
ROOT
ATOM      1  O3  UNK T   1      37.427  12.244 194.657  0.00  0.00    +0.000 OA
ATOM      2  O6  UNK T   1      37.453  17.263 198.838  0.00  0.00    +0.000 OA
ATOM      3  C11 UNK T   1      38.836  14.324 197.266  0.00  0.00    +0.000 C 
ATOM      4  C12 UNK T   1      40.111  14.436 195.059  0.00  0.00    +0.000 C 
ATOM      5  C13 UNK T   1      39.744  15.195 196.346  0.00  0.00    +0.000 C 
ATOM      6  C14 UNK T   1      37.568  13.779 196.555  0.00  0.00    +0.000 C 
ATOM      7  C15 UNK T   1      38.471  15.124 198.528  0.00  0.00    +0.000 C 
ATOM      8  C16 UNK T   1      41.151  15.122 194.124  0.00  0.00    +0.000 C 
ATOM      9  C17 UNK T   1      38.819  14.136 194.364  0.00  0.00    +0.000 C 
ATOM     10  C18 UNK T   1      37.900  13.267 195.144  0.00  0.00    +0.000 C 
ATOM     11  C19 UNK T   1      36.444  14.795 196.458  0.00  0.00    +0.000 C 
ATOM     12  C20 UNK T   1      40.512  16.042 193.085  0.00  0.00    +0.000 A 
ATOM     13  C21 UNK T   1      37.454  16.202 198.212  0.00  0.00    +0.000 C 
ATOM     14  C22 UNK T   1      38.396  14.711 193.229  0.00  0.00    +0.000 C 
ATOM     15  C23 UNK T   1      36.405  15.940 197.172  0.00  0.00    +0.000 C 
ATOM     16  C24 UNK T   1      39.194  15.804 192.629  0.00  0.00    +0.000 A 
ATOM     17  C25 UNK T   1      41.956  14.048 193.366  0.00  0.00    +0.000 C 
ATOM     18  C26 UNK T   1      41.260  17.092 192.519  0.00  0.00    +0.000 A 
ATOM     19  C29 UNK T   1      38.656  16.660 191.651  0.00  0.00    +0.000 A 
ATOM     20  C31 UNK T   1      40.711  17.919 191.543  0.00  0.00    +0.000 A 
ATOM     21  C32 UNK T   1      39.409  17.706 191.112  0.00  0.00    +0.000 A 
ENDROOT
BRANCH  15  24
ATOM     22  O8  UNK T   1      35.080  17.379 195.855  0.00  0.00    +0.000 OA
ATOM     23  N10 UNK T   1      34.690  17.279 198.128  0.00  0.00    +0.000 N 
ATOM     24  C30 UNK T   1      35.335  16.932 196.967  0.00  0.00    +0.000 C 
ATOM     25  H54 UNK T   1      33.933  17.956 198.157  0.00  0.00    +0.000 HD
ATOM     26  H55 UNK T   1      34.958  16.865 199.015  0.00  0.00    +0.000 HD
ENDBRANCH  15  24
BRANCH   7  27
ATOM     27  N9  UNK T   1      37.885  14.298 199.580  0.00  0.00    +0.000 NA
ATOM     28  C27 UNK T   1      38.864  13.333 200.076  0.00  0.00    +0.000 C 
ATOM     29  C28 UNK T   1      37.395  15.138 200.672  0.00  0.00    +0.000 C 
ENDBRANCH   7  27
BRANCH   6  30
ATOM     30  O1  UNK T   1      37.051  12.657 197.270  0.00  0.00    +0.000 OA
ATOM     31  H41 UNK T   1      37.175  12.798 198.224  0.00  0.00    +0.000 HD
ENDBRANCH   6  30
BRANCH   8  32
ATOM     32  O2  UNK T   1      42.097  15.828 194.935  0.00  0.00    +0.000 OA
ATOM     33  H42 UNK T   1      42.032  16.774 194.721  0.00  0.00    +0.000 HD
ENDBRANCH   8  32
BRANCH  11  34
ATOM     34  O4  UNK T   1      35.451  14.415 195.567  0.00  0.00    +0.000 OA
ATOM     35  H50 UNK T   1      35.411  13.447 195.513  0.00  0.00    +0.000 HD
ENDBRANCH  11  34
BRANCH  14  36
ATOM     36  O5  UNK T   1      37.178  14.385 192.667  0.00  0.00    +0.000 OA
ATOM     37  H51 UNK T   1      36.785  13.634 193.139  0.00  0.00    +0.000 HD
ENDBRANCH  14  36
BRANCH  19  38
ATOM     38  O7  UNK T   1      37.393  16.515 191.148  0.00  0.00    +0.000 OA
ATOM     39  H56 UNK T   1      37.429  16.057 190.292  0.00  0.00    +0.000 HD
ENDBRANCH  19  38
TORSDOF 7
REMARK  Name = KETCA.pdb
REMARK  8 active torsions:
REMARK  status: ('A' for Active; 'I' for Inactive)
REMARK    1  A    between atoms: O5_5  and  C16_16
REMARK    2  A    between atoms: O5_5  and  C24_24
REMARK    3  A    between atoms: N7_7  and  C21_21
REMARK    4  A    between atoms: N9_9  and  C14_14
REMARK    5  A    between atoms: C11_11  and  C14_14
REMARK    6  A    between atoms: C11_11  and  C15_15
REMARK    7  A    between atoms: C12_12  and  C16_16
REMARK    8  A    between atoms: C25_25  and  C36_36
REMARK                            x       y       z     vdW  Elec       q    Type
REMARK                         _______ _______ _______ _____ _____    ______ ____
ROOT
ATOM      1  O3  UNK K   1      43.793  16.474 196.979  0.00  0.00    +0.000 OA
ATOM      2  O4  UNK K   1      45.605  15.426 198.004  0.00  0.00    +0.000 OA
ATOM      3  C11 UNK K   1      44.154  15.391 197.968  0.00  0.00    +0.000 C 
ATOM      4  C12 UNK K   1      45.077  17.117 196.623  0.00  0.00    +0.000 C 
ATOM      5  C13 UNK K   1      45.855  16.887 197.919  0.00  0.00    +0.000 C 
ENDROOT
BRANCH   3   8
ATOM      6 CL1  UNK K   1      44.984  13.682 195.295  0.00  0.00    +0.000 Cl
ATOM      7 CL2  UNK K   1      41.366  10.029 196.771  0.00  0.00    +0.000 Cl
ATOM      8  C15 UNK K   1      43.491  14.009 197.533  0.00  0.00    +0.000 A 
ATOM      9  C22 UNK K   1      43.825  13.238 196.472  0.00  0.00    +0.000 A 
ATOM     10  C23 UNK K   1      42.456  13.489 198.453  0.00  0.00    +0.000 A 
ATOM     11  C32 UNK K   1      43.107  11.967 196.226  0.00  0.00    +0.000 A 
ATOM     12  C33 UNK K   1      41.819  12.342 198.215  0.00  0.00    +0.000 A 
ATOM     13  C34 UNK K   1      42.176  11.533 197.068  0.00  0.00    +0.000 A 
ENDBRANCH   3   8
BRANCH   3  14
ATOM     14  C14 UNK K   1      43.676  15.855 199.424  0.00  0.00    +0.000 C 
BRANCH  14  15
ATOM     15  N9  UNK K   1      42.707  16.985 199.492  0.00  0.00    +0.000 N 
ATOM     16  N10 UNK K   1      41.934  18.956 199.929  0.00  0.00    +0.000 NA
ATOM     17  C28 UNK K   1      41.318  16.864 199.446  0.00  0.00    +0.000 A 
ATOM     18  C29 UNK K   1      43.029  18.305 199.819  0.00  0.00    +0.000 A 
ATOM     19  C35 UNK K   1      40.837  18.083 199.700  0.00  0.00    +0.000 A 
ENDBRANCH  14  15
ENDBRANCH   3  14
BRANCH   4  20
ATOM     20  C16 UNK K   1      44.949  18.658 196.014  0.00  0.00    +0.000 C 
BRANCH  20  21
ATOM     21  O5  UNK K   1      43.805  19.465 196.589  0.00  0.00    +0.000 OA
BRANCH  21  23
ATOM     22  C21 UNK K   1      39.987  20.001 194.406  0.00  0.00    +0.000 A 
ATOM     23  C24 UNK K   1      42.535  19.692 195.787  0.00  0.00    +0.000 A 
ATOM     24  C26 UNK K   1      41.063  20.726 194.043  0.00  0.00    +0.000 A 
ATOM     25  C27 UNK K   1      40.149  19.046 195.514  0.00  0.00    +0.000 A 
ATOM     26  C30 UNK K   1      42.415  20.556 194.764  0.00  0.00    +0.000 A 
ATOM     27  C31 UNK K   1      41.320  18.909 196.159  0.00  0.00    +0.000 A 
BRANCH  22  29
ATOM     28  O6  UNK K   1      34.387  21.770 191.532  0.00  0.00    +0.000 OA
ATOM     29  N7  UNK K   1      38.660  20.145 193.746  0.00  0.00    +0.000 N 
ATOM     30  N8  UNK K   1      36.012  20.490 192.572  0.00  0.00    +0.000 N 
ATOM     31  C17 UNK K   1      38.462  21.036 192.612  0.00  0.00    +0.000 C 
ATOM     32  C18 UNK K   1      37.503  19.414 194.258  0.00  0.00    +0.000 C 
ATOM     33  C19 UNK K   1      36.971  21.576 192.559  0.00  0.00    +0.000 C 
ATOM     34  C20 UNK K   1      36.392  19.221 193.152  0.00  0.00    +0.000 C 
ATOM     35  C25 UNK K   1      34.705  20.676 192.017  0.00  0.00    +0.000 C 
ATOM     36  C36 UNK K   1      33.709  19.541 191.985  0.00  0.00    +0.000 C 
ENDBRANCH  22  29
ENDBRANCH  21  23
ENDBRANCH  20  21
ENDBRANCH   4  20
TORSDOF 7
ENDMDL
