MODEL 1
REMARK VINA RESULT:    -3.840      0.000      0.000
REMARK INTER + INTRA:          -5.625
REMARK INTER:                  -5.300
REMARK INTRA:                  -0.326
REMARK UNBOUND:                -0.326
REMARK  Name = BCBL.pdb
REMARK  4 active torsions:
REMARK  status: ('A' for Active; 'I' for Inactive)
REMARK    1  A    between atoms: O1_1  and  C6_6
REMARK    2  A    between atoms: O3_3  and  C17_17
REMARK    3  A    between atoms: O4_4  and  C18_18
REMARK    4  A    between atoms: O5_5  and  C21_21
REMARK                            x       y       z     vdW  Elec       q    Type
REMARK                         _______ _______ _______ _____ _____    ______ ____
ROOT
ATOM      1  O2  UNK B   0      35.686  17.660 194.160  0.00  0.00    +0.000 OA
ATOM      2  C6  UNK B   0      36.025  18.806 196.300  0.00  0.00    +0.000 C 
ATOM      3  C7  UNK B   0      35.665  17.520 197.099  0.00  0.00    +0.000 C 
ATOM      4  C8  UNK B   0      37.568  18.875 196.196  0.00  0.00    +0.000 C 
ATOM      5  C9  UNK B   0      36.931  17.320 197.900  0.00  0.00    +0.000 A 
ATOM      6  C10 UNK B   0      37.989  18.079 197.389  0.00  0.00    +0.000 A 
ATOM      7  C11 UNK B   0      35.352  18.813 194.932  0.00  0.00    +0.000 C 
ATOM      8  C12 UNK B   0      35.318  16.362 196.191  0.00  0.00    +0.000 A 
ATOM      9  C13 UNK B   0      35.368  16.488 194.795  0.00  0.00    +0.000 A 
ATOM     10  C14 UNK B   0      37.115  16.524 199.022  0.00  0.00    +0.000 A 
ATOM     11  C15 UNK B   0      39.252  18.030 197.961  0.00  0.00    +0.000 A 
ATOM     12  C16 UNK B   0      34.930  15.125 196.732  0.00  0.00    +0.000 A 
ATOM     13  C17 UNK B   0      38.381  16.477 199.611  0.00  0.00    +0.000 A 
ATOM     14  C18 UNK B   0      39.443  17.221 199.081  0.00  0.00    +0.000 A 
ATOM     15  C19 UNK B   0      35.111  15.392 193.966  0.00  0.00    +0.000 A 
ATOM     16  C20 UNK B   0      34.652  14.036 195.904  0.00  0.00    +0.000 A 
ATOM     17  C21 UNK B   0      34.752  14.167 194.521  0.00  0.00    +0.000 A 
ENDROOT
BRANCH   2  18
ATOM     18  O1  UNK B   0      35.548  19.957 197.006  0.00  0.00    +0.000 OA
ATOM     19  H28 UNK B   0      36.165  20.690 196.843  0.00  0.00    +0.000 HD
ENDBRANCH   2  18
BRANCH  13  20
ATOM     20  O3  UNK B   0      38.573  15.694 200.711  0.00  0.00    +0.000 OA
ATOM     21  H33 UNK B   0      38.029  16.035 201.441  0.00  0.00    +0.000 HD
ENDBRANCH  13  20
BRANCH  14  22
ATOM     22  O4  UNK B   0      40.677  17.167 199.659  0.00  0.00    +0.000 OA
ATOM     23  H34 UNK B   0      41.274  16.659 199.084  0.00  0.00    +0.000 HD
ENDBRANCH  14  22
BRANCH  17  24
ATOM     24  O5  UNK B   0      34.490  13.102 193.715  0.00  0.00    +0.000 OA
ATOM     25  H35 UNK B   0      33.688  13.290 193.196  0.00  0.00    +0.000 HD
ENDBRANCH  17  24
TORSDOF 4
REMARK  Name = TETCA.pdb
REMARK  10 active torsions:
REMARK  status: ('A' for Active; 'I' for Inactive)
REMARK    1  A    between atoms: O1_1  and  C14_14
REMARK    2  A    between atoms: O2_2  and  C16_16
REMARK    3  A    between atoms: O4_4  and  C19_19
REMARK    4  A    between atoms: O5_5  and  C22_22
REMARK    5  A    between atoms: O7_7  and  C29_29
REMARK    6  A    between atoms: N9_9  and  C15_15
REMARK    7  A    between atoms: N9_9  and  C27_27
REMARK    8  A    between atoms: N9_9  and  C28_28
REMARK    9  A    between atoms: C16_16  and  C25_25
REMARK   10  A    between atoms: C23_23  and  C30_30
REMARK                            x       y       z     vdW  Elec       q    Type
REMARK                         _______ _______ _______ _____ _____    ______ ____
ROOT
ATOM      1  O3  UNK T   1      44.334  17.752 194.425  0.00  0.00    +0.000 OA
ATOM      2  O6  UNK T   1      39.970  21.924 196.917  0.00  0.00    +0.000 OA
ATOM      3  C11 UNK T   1      41.473  19.968 194.284  0.00  0.00    +0.000 C 
ATOM      4  C12 UNK T   1      40.892  17.510 193.916  0.00  0.00    +0.000 C 
ATOM      5  C13 UNK T   1      40.374  18.870 194.419  0.00  0.00    +0.000 C 
ATOM      6  C14 UNK T   1      42.817  19.592 194.964  0.00  0.00    +0.000 C 
ATOM      7  C15 UNK T   1      40.928  21.303 194.819  0.00  0.00    +0.000 C 
ATOM      8  C16 UNK T   1      39.846  16.359 193.835  0.00  0.00    +0.000 C 
ATOM      9  C17 UNK T   1      42.069  17.163 194.775  0.00  0.00    +0.000 C 
ATOM     10  C18 UNK T   1      43.194  18.129 194.677  0.00  0.00    +0.000 C 
ATOM     11  C19 UNK T   1      42.820  19.816 196.465  0.00  0.00    +0.000 C 
ATOM     12  C20 UNK T   1      39.747  15.546 195.125  0.00  0.00    +0.000 A 
ATOM     13  C21 UNK T   1      40.849  21.289 196.332  0.00  0.00    +0.000 C 
ATOM     14  C22 UNK T   1      42.096  16.192 195.698  0.00  0.00    +0.000 C 
ATOM     15  C23 UNK T   1      41.891  20.547 197.115  0.00  0.00    +0.000 C 
ATOM     16  C24 UNK T   1      40.857  15.438 195.994  0.00  0.00    +0.000 A 
ATOM     17  C25 UNK T   1      40.227  15.390 192.699  0.00  0.00    +0.000 C 
ATOM     18  C26 UNK T   1      38.566  14.836 195.420  0.00  0.00    +0.000 A 
ATOM     19  C29 UNK T   1      40.729  14.656 197.156  0.00  0.00    +0.000 A 
ATOM     20  C31 UNK T   1      38.466  14.058 196.570  0.00  0.00    +0.000 A 
ATOM     21  C32 UNK T   1      39.546  13.971 197.440  0.00  0.00    +0.000 A 
ENDROOT
BRANCH  15  24
ATOM     22  O8  UNK T   1      41.966  19.659 199.299  0.00  0.00    +0.000 OA
ATOM     23  N10 UNK T   1      41.805  21.947 199.035  0.00  0.00    +0.000 N 
ATOM     24  C30 UNK T   1      41.893  20.653 198.585  0.00  0.00    +0.000 C 
ATOM     25  H54 UNK T   1      41.786  22.188 200.021  0.00  0.00    +0.000 HD
ATOM     26  H55 UNK T   1      41.747  22.721 198.381  0.00  0.00    +0.000 HD
ENDBRANCH  15  24
BRANCH   7  27
ATOM     27  N9  UNK T   1      41.761  22.447 194.458  0.00  0.00    +0.000 NA
ATOM     28  C27 UNK T   1      41.780  22.628 193.007  0.00  0.00    +0.000 C 
ATOM     29  C28 UNK T   1      41.276  23.657 195.119  0.00  0.00    +0.000 C 
ENDBRANCH   7  27
BRANCH   6  30
ATOM     30  O1  UNK T   1      43.875  20.384 194.425  0.00  0.00    +0.000 OA
ATOM     31  H41 UNK T   1      44.184  21.012 195.100  0.00  0.00    +0.000 HD
ENDBRANCH   6  30
BRANCH   8  32
ATOM     32  O2  UNK T   1      38.579  16.919 193.472  0.00  0.00    +0.000 OA
ATOM     33  H42 UNK T   1      38.359  17.612 194.117  0.00  0.00    +0.000 HD
ENDBRANCH   8  32
BRANCH  11  34
ATOM     34  O4  UNK T   1      43.890  19.200 197.098  0.00  0.00    +0.000 OA
ATOM     35  H50 UNK T   1      44.297  19.815 197.729  0.00  0.00    +0.000 HD
ENDBRANCH  11  34
BRANCH  14  36
ATOM     36  O5  UNK T   1      43.224  15.954 196.459  0.00  0.00    +0.000 OA
ATOM     37  H51 UNK T   1      43.959  16.503 196.145  0.00  0.00    +0.000 HD
ENDBRANCH  14  36
BRANCH  19  38
ATOM     38  O7  UNK T   1      41.743  14.491 198.058  0.00  0.00    +0.000 OA
ATOM     39  H56 UNK T   1      41.482  13.845 198.735  0.00  0.00    +0.000 HD
ENDBRANCH  19  38
TORSDOF 7
ENDMDL
MODEL 2
REMARK VINA RESULT:    -3.838      5.588     10.330
REMARK INTER + INTRA:          -5.623
REMARK INTER:                  -5.300
REMARK INTRA:                  -0.323
REMARK UNBOUND:                -0.326
REMARK  Name = BCBL.pdb
REMARK  4 active torsions:
REMARK  status: ('A' for Active; 'I' for Inactive)
REMARK    1  A    between atoms: O1_1  and  C6_6
REMARK    2  A    between atoms: O3_3  and  C17_17
REMARK    3  A    between atoms: O4_4  and  C18_18
REMARK    4  A    between atoms: O5_5  and  C21_21
REMARK                            x       y       z     vdW  Elec       q    Type
REMARK                         _______ _______ _______ _____ _____    ______ ____
ROOT
ATOM      1  O2  UNK B   0      39.220  11.511 201.464  0.00  0.00    +0.000 OA
ATOM      2  C6  UNK B   0      37.928  12.859 203.052  0.00  0.00    +0.000 C 
ATOM      3  C7  UNK B   0      38.729  14.142 202.687  0.00  0.00    +0.000 C 
ATOM      4  C8  UNK B   0      36.622  12.869 202.221  0.00  0.00    +0.000 C 
ATOM      5  C9  UNK B   0      37.613  15.048 202.217  0.00  0.00    +0.000 A 
ATOM      6  C10 UNK B   0      36.441  14.330 201.958  0.00  0.00    +0.000 A 
ATOM      7  C11 UNK B   0      38.756  11.603 202.811  0.00  0.00    +0.000 C 
ATOM      8  C12 UNK B   0      39.790  13.876 201.644  0.00  0.00    +0.000 A 
ATOM      9  C13 UNK B   0      39.959  12.601 201.084  0.00  0.00    +0.000 A 
ATOM     10  C14 UNK B   0      37.645  16.425 202.051  0.00  0.00    +0.000 A 
ATOM     11  C15 UNK B   0      35.297  14.963 201.495  0.00  0.00    +0.000 A 
ATOM     12  C16 UNK B   0      40.640  14.908 201.215  0.00  0.00    +0.000 A 
ATOM     13  C17 UNK B   0      36.494  17.073 201.595  0.00  0.00    +0.000 A 
ATOM     14  C18 UNK B   0      35.329  16.346 201.315  0.00  0.00    +0.000 A 
ATOM     15  C19 UNK B   0      40.898  12.381 200.072  0.00  0.00    +0.000 A 
ATOM     16  C20 UNK B   0      41.593  14.683 200.219  0.00  0.00    +0.000 A 
ATOM     17  C21 UNK B   0      41.716  13.423 199.641  0.00  0.00    +0.000 A 
ENDROOT
BRANCH   2  18
ATOM     18  O1  UNK B   0      37.599  12.880 204.446  0.00  0.00    +0.000 OA
ATOM     19  H28 UNK B   0      36.663  12.634 204.541  0.00  0.00    +0.000 HD
ENDBRANCH   2  18
BRANCH  13  20
ATOM     20  O3  UNK B   0      36.516  18.426 201.425  0.00  0.00    +0.000 OA
ATOM     21  H33 UNK B   0      37.375  18.769 201.726  0.00  0.00    +0.000 HD
ENDBRANCH  13  20
BRANCH  14  22
ATOM     22  O4  UNK B   0      34.211  16.984 200.867  0.00  0.00    +0.000 OA
ATOM     23  H34 UNK B   0      33.731  17.353 201.628  0.00  0.00    +0.000 HD
ENDBRANCH  14  22
BRANCH  17  24
ATOM     24  O5  UNK B   0      42.638  13.208 198.664  0.00  0.00    +0.000 OA
ATOM     25  H35 UNK B   0      42.191  13.229 197.799  0.00  0.00    +0.000 HD
ENDBRANCH  17  24
TORSDOF 4
REMARK  Name = TETCA.pdb
REMARK  10 active torsions:
REMARK  status: ('A' for Active; 'I' for Inactive)
REMARK    1  A    between atoms: O1_1  and  C14_14
REMARK    2  A    between atoms: O2_2  and  C16_16
REMARK    3  A    between atoms: O4_4  and  C19_19
REMARK    4  A    between atoms: O5_5  and  C22_22
REMARK    5  A    between atoms: O7_7  and  C29_29
REMARK    6  A    between atoms: N9_9  and  C15_15
REMARK    7  A    between atoms: N9_9  and  C27_27
REMARK    8  A    between atoms: N9_9  and  C28_28
REMARK    9  A    between atoms: C16_16  and  C25_25
REMARK   10  A    between atoms: C23_23  and  C30_30
REMARK                            x       y       z     vdW  Elec       q    Type
REMARK                         _______ _______ _______ _____ _____    ______ ____
ROOT
ATOM      1  O3  UNK T   1      31.885  12.455 196.971  0.00  0.00    +0.000 OA
ATOM      2  O6  UNK T   1      32.915  12.241 203.418  0.00  0.00    +0.000 OA
ATOM      3  C11 UNK T   1      33.175  11.016 200.033  0.00  0.00    +0.000 C 
ATOM      4  C12 UNK T   1      34.989  11.825 198.432  0.00  0.00    +0.000 C 
ATOM      5  C13 UNK T   1      34.629  11.565 199.905  0.00  0.00    +0.000 C 
ATOM      6  C14 UNK T   1      32.108  11.908 199.343  0.00  0.00    +0.000 C 
ATOM      7  C15 UNK T   1      32.844  10.793 201.519  0.00  0.00    +0.000 C 
ATOM      8  C16 UNK T   1      36.468  12.216 198.140  0.00  0.00    +0.000 C 
ATOM      9  C17 UNK T   1      34.013  12.844 197.932  0.00  0.00    +0.000 C 
ATOM     10  C18 UNK T   1      32.597  12.394 197.968  0.00  0.00    +0.000 C 
ATOM     11  C19 UNK T   1      31.695  13.110 200.173  0.00  0.00    +0.000 C 
ATOM     12  C20 UNK T   1      36.713  13.723 198.191  0.00  0.00    +0.000 A 
ATOM     13  C21 UNK T   1      32.619  12.113 202.229  0.00  0.00    +0.000 C 
ATOM     14  C22 UNK T   1      34.304  14.119 197.638  0.00  0.00    +0.000 C 
ATOM     15  C23 UNK T   1      31.971  13.244 201.486  0.00  0.00    +0.000 C 
ATOM     16  C24 UNK T   1      35.667  14.631 197.902  0.00  0.00    +0.000 A 
ATOM     17  C25 UNK T   1      36.869  11.724 196.735  0.00  0.00    +0.000 C 
ATOM     18  C26 UNK T   1      38.005  14.218 198.455  0.00  0.00    +0.000 A 
ATOM     19  C29 UNK T   1      35.945  16.009 197.933  0.00  0.00    +0.000 A 
ATOM     20  C31 UNK T   1      38.259  15.587 198.468  0.00  0.00    +0.000 A 
ATOM     21  C32 UNK T   1      37.229  16.482 198.212  0.00  0.00    +0.000 A 
ENDROOT
BRANCH  15  24
ATOM     22  O8  UNK T   1      31.931  15.583 201.789  0.00  0.00    +0.000 OA
ATOM     23  N10 UNK T   1      30.951  14.239 203.390  0.00  0.00    +0.000 N 
ATOM     24  C30 UNK T   1      31.626  14.476 202.218  0.00  0.00    +0.000 C 
ATOM     25  H54 UNK T   1      30.649  14.982 204.012  0.00  0.00    +0.000 HD
ATOM     26  H55 UNK T   1      30.734  13.291 203.681  0.00  0.00    +0.000 HD
ENDBRANCH  15  24
BRANCH   7  27
ATOM     27  N9  UNK T   1      31.634  10.001 201.723  0.00  0.00    +0.000 NA
ATOM     28  C27 UNK T   1      31.810   8.652 201.189  0.00  0.00    +0.000 C 
ATOM     29  C28 UNK T   1      31.293   9.950 203.144  0.00  0.00    +0.000 C 
ENDBRANCH   7  27
BRANCH   6  30
ATOM     30  O1  UNK T   1      30.924  11.149 199.095  0.00  0.00    +0.000 OA
ATOM     31  H41 UNK T   1      31.084  10.535 198.359  0.00  0.00    +0.000 HD
ENDBRANCH   6  30
BRANCH   8  32
ATOM     32  O2  UNK T   1      37.314  11.518 199.061  0.00  0.00    +0.000 OA
ATOM     33  H42 UNK T   1      36.797  11.329 199.863  0.00  0.00    +0.000 HD
ENDBRANCH   8  32
BRANCH  11  34
ATOM     34  O4  UNK T   1      30.990  14.052 199.439  0.00  0.00    +0.000 OA
ATOM     35  H50 UNK T   1      31.034  14.914 199.882  0.00  0.00    +0.000 HD
ENDBRANCH  11  34
BRANCH  14  36
ATOM     36  O5  UNK T   1      33.332  14.997 197.199  0.00  0.00    +0.000 OA
ATOM     37  H51 UNK T   1      32.566  14.969 197.794  0.00  0.00    +0.000 HD
ENDBRANCH  14  36
BRANCH  19  38
ATOM     38  O7  UNK T   1      35.003  16.965 197.671  0.00  0.00    +0.000 OA
ATOM     39  H56 UNK T   1      35.170  17.364 196.801  0.00  0.00    +0.000 HD
ENDBRANCH  19  38
TORSDOF 7
ENDMDL
MODEL 3
REMARK VINA RESULT:    -3.838      3.376      6.109
REMARK INTER + INTRA:          -5.623
REMARK INTER:                  -5.297
REMARK INTRA:                  -0.326
REMARK UNBOUND:                -0.326
REMARK  Name = BCBL.pdb
REMARK  4 active torsions:
REMARK  status: ('A' for Active; 'I' for Inactive)
REMARK    1  A    between atoms: O1_1  and  C6_6
REMARK    2  A    between atoms: O3_3  and  C17_17
REMARK    3  A    between atoms: O4_4  and  C18_18
REMARK    4  A    between atoms: O5_5  and  C21_21
REMARK                            x       y       z     vdW  Elec       q    Type
REMARK                         _______ _______ _______ _____ _____    ______ ____
ROOT
ATOM      1  O2  UNK B   0      37.202  13.768 201.164  0.00  0.00    +0.000 OA
ATOM      2  C6  UNK B   0      39.440  13.066 201.875  0.00  0.00    +0.000 C 
ATOM      3  C7  UNK B   0      39.509  11.988 200.755  0.00  0.00    +0.000 C 
ATOM      4  C8  UNK B   0      40.171  14.328 201.355  0.00  0.00    +0.000 C 
ATOM      5  C9  UNK B   0      40.743  12.436 200.006  0.00  0.00    +0.000 A 
ATOM      6  C10 UNK B   0      41.106  13.743 200.345  0.00  0.00    +0.000 A 
ATOM      7  C11 UNK B   0      37.998  13.357 202.274  0.00  0.00    +0.000 C 
ATOM      8  C12 UNK B   0      38.253  11.956 199.914  0.00  0.00    +0.000 A 
ATOM      9  C13 UNK B   0      37.196  12.848 200.147  0.00  0.00    +0.000 A 
ATOM     10  C14 UNK B   0      41.499  11.711 199.095  0.00  0.00    +0.000 A 
ATOM     11  C15 UNK B   0      42.200  14.362 199.759  0.00  0.00    +0.000 A 
ATOM     12  C16 UNK B   0      38.116  11.021 198.876  0.00  0.00    +0.000 A 
ATOM     13  C17 UNK B   0      42.609  12.323 198.507  0.00  0.00    +0.000 A 
ATOM     14  C18 UNK B   0      42.954  13.641 198.833  0.00  0.00    +0.000 A 
ATOM     15  C19 UNK B   0      36.068  12.855 199.321  0.00  0.00    +0.000 A 
ATOM     16  C20 UNK B   0      36.979  11.013 198.065  0.00  0.00    +0.000 A 
ATOM     17  C21 UNK B   0      35.960  11.936 198.281  0.00  0.00    +0.000 A 
ENDROOT
BRANCH   2  18
ATOM     18  O1  UNK B   0      40.108  12.583 203.046  0.00  0.00    +0.000 OA
ATOM     19  H28 UNK B   0      40.348  11.653 202.897  0.00  0.00    +0.000 HD
ENDBRANCH   2  18
BRANCH  13  20
ATOM     20  O3  UNK B   0      43.355  11.620 197.607  0.00  0.00    +0.000 OA
ATOM     21  H33 UNK B   0      43.359  10.682 197.862  0.00  0.00    +0.000 HD
ENDBRANCH  13  20
BRANCH  14  22
ATOM     22  O4  UNK B   0      44.036  14.233 198.252  0.00  0.00    +0.000 OA
ATOM     23  H34 UNK B   0      43.745  14.719 197.463  0.00  0.00    +0.000 HD
ENDBRANCH  14  22
BRANCH  17  24
ATOM     24  O5  UNK B   0      34.857  11.934 197.484  0.00  0.00    +0.000 OA
ATOM     25  H35 UNK B   0      35.035  11.381 196.702  0.00  0.00    +0.000 HD
ENDBRANCH  17  24
TORSDOF 4
REMARK  Name = TETCA.pdb
REMARK  10 active torsions:
REMARK  status: ('A' for Active; 'I' for Inactive)
REMARK    1  A    between atoms: O1_1  and  C14_14
REMARK    2  A    between atoms: O2_2  and  C16_16
REMARK    3  A    between atoms: O4_4  and  C19_19
REMARK    4  A    between atoms: O5_5  and  C22_22
REMARK    5  A    between atoms: O7_7  and  C29_29
REMARK    6  A    between atoms: N9_9  and  C15_15
REMARK    7  A    between atoms: N9_9  and  C27_27
REMARK    8  A    between atoms: N9_9  and  C28_28
REMARK    9  A    between atoms: C16_16  and  C25_25
REMARK   10  A    between atoms: C23_23  and  C30_30
REMARK                            x       y       z     vdW  Elec       q    Type
REMARK                         _______ _______ _______ _____ _____    ______ ____
ROOT
ATOM      1  O3  UNK T   1      41.895  20.266 197.906  0.00  0.00    +0.000 OA
ATOM      2  O6  UNK T   1      42.901  16.526 203.166  0.00  0.00    +0.000 OA
ATOM      3  C11 UNK T   1      40.974  18.725 201.051  0.00  0.00    +0.000 C 
ATOM      4  C12 UNK T   1      39.640  17.864 199.054  0.00  0.00    +0.000 C 
ATOM      5  C13 UNK T   1      40.186  17.522 200.451  0.00  0.00    +0.000 C 
ATOM      6  C14 UNK T   1      42.099  19.259 200.124  0.00  0.00    +0.000 C 
ATOM      7  C15 UNK T   1      41.524  18.336 202.434  0.00  0.00    +0.000 C 
ATOM      8  C16 UNK T   1      38.690  16.815 198.405  0.00  0.00    +0.000 C 
ATOM      9  C17 UNK T   1      40.831  18.172 198.199  0.00  0.00    +0.000 C 
ATOM     10  C18 UNK T   1      41.623  19.340 198.664  0.00  0.00    +0.000 C 
ATOM     11  C19 UNK T   1      43.373  18.435 200.182  0.00  0.00    +0.000 C 
ATOM     12  C20 UNK T   1      39.429  15.770 197.570  0.00  0.00    +0.000 A 
ATOM     13  C21 UNK T   1      42.694  17.381 202.303  0.00  0.00    +0.000 C 
ATOM     14  C22 UNK T   1      41.294  17.400 197.206  0.00  0.00    +0.000 C 
ATOM     15  C23 UNK T   1      43.636  17.528 201.145  0.00  0.00    +0.000 C 
ATOM     16  C24 UNK T   1      40.666  16.082 196.960  0.00  0.00    +0.000 A 
ATOM     17  C25 UNK T   1      37.683  17.526 197.480  0.00  0.00    +0.000 C 
ATOM     18  C26 UNK T   1      38.845  14.509 197.342  0.00  0.00    +0.000 A 
ATOM     19  C29 UNK T   1      41.298  15.099 196.177  0.00  0.00    +0.000 A 
ATOM     20  C31 UNK T   1      39.482  13.556 196.552  0.00  0.00    +0.000 A 
ATOM     21  C32 UNK T   1      40.710  13.849 195.974  0.00  0.00    +0.000 A 
ENDROOT
BRANCH  15  24
ATOM     22  O8  UNK T   1      45.160  16.072 200.087  0.00  0.00    +0.000 OA
ATOM     23  N10 UNK T   1      45.553  16.692 202.276  0.00  0.00    +0.000 N 
ATOM     24  C30 UNK T   1      44.849  16.692 201.098  0.00  0.00    +0.000 C 
ATOM     25  H54 UNK T   1      46.408  16.160 202.407  0.00  0.00    +0.000 HD
ATOM     26  H55 UNK T   1      45.231  17.231 203.073  0.00  0.00    +0.000 HD
ENDBRANCH  15  24
BRANCH   7  27
ATOM     27  N9  UNK T   1      42.008  19.481 203.201  0.00  0.00    +0.000 NA
ATOM     28  C27 UNK T   1      40.908  20.397 203.499  0.00  0.00    +0.000 C 
ATOM     29  C28 UNK T   1      42.650  19.032 204.435  0.00  0.00    +0.000 C 
ENDBRANCH   7  27
BRANCH   6  30
ATOM     30  O1  UNK T   1      42.450  20.591 200.499  0.00  0.00    +0.000 OA
ATOM     31  H41 UNK T   1      41.932  20.853 201.278  0.00  0.00    +0.000 HD
ENDBRANCH   6  30
BRANCH   8  32
ATOM     32  O2  UNK T   1      37.914  16.201 199.441  0.00  0.00    +0.000 OA
ATOM     33  H42 UNK T   1      38.272  16.490 200.297  0.00  0.00    +0.000 HD
ENDBRANCH   8  32
BRANCH  11  34
ATOM     34  O4  UNK T   1      44.247  18.724 199.144  0.00  0.00    +0.000 OA
ATOM     35  H50 UNK T   1      43.783  18.655 198.294  0.00  0.00    +0.000 HD
ENDBRANCH  11  34
BRANCH  14  36
ATOM     36  O5  UNK T   1      42.414  17.755 196.481  0.00  0.00    +0.000 OA
ATOM     37  H51 UNK T   1      42.151  18.214 195.668  0.00  0.00    +0.000 HD
ENDBRANCH  14  36
BRANCH  19  38
ATOM     38  O7  UNK T   1      42.494  15.303 195.548  0.00  0.00    +0.000 OA
ATOM     39  H56 UNK T   1      43.018  14.484 195.559  0.00  0.00    +0.000 HD
ENDBRANCH  19  38
TORSDOF 7
ENDMDL
MODEL 4
REMARK VINA RESULT:    -3.838      5.737      9.728
REMARK INTER + INTRA:          -5.622
REMARK INTER:                  -5.297
REMARK INTRA:                  -0.326
REMARK UNBOUND:                -0.326
REMARK  Name = BCBL.pdb
REMARK  4 active torsions:
REMARK  status: ('A' for Active; 'I' for Inactive)
REMARK    1  A    between atoms: O1_1  and  C6_6
REMARK    2  A    between atoms: O3_3  and  C17_17
REMARK    3  A    between atoms: O4_4  and  C18_18
REMARK    4  A    between atoms: O5_5  and  C21_21
REMARK                            x       y       z     vdW  Elec       q    Type
REMARK                         _______ _______ _______ _____ _____    ______ ____
ROOT
ATOM      1  O2  UNK B   0      40.395  11.584 196.316  0.00  0.00    +0.000 OA
ATOM      2  C6  UNK B   0      38.424  12.178 194.987  0.00  0.00    +0.000 C 
ATOM      3  C7  UNK B   0      38.310  10.731 194.424  0.00  0.00    +0.000 C 
ATOM      4  C8  UNK B   0      37.454  12.290 196.189  0.00  0.00    +0.000 C 
ATOM      5  C9  UNK B   0      36.918  10.358 194.881  0.00  0.00    +0.000 A 
ATOM      6  C10 UNK B   0      36.448  11.233 195.867  0.00  0.00    +0.000 A 
ATOM      7  C11 UNK B   0      39.861  12.510 195.370  0.00  0.00    +0.000 C 
ATOM      8  C12 UNK B   0      39.398   9.825 194.954  0.00  0.00    +0.000 A 
ATOM      9  C13 UNK B   0      40.351  10.288 195.872  0.00  0.00    +0.000 A 
ATOM     10  C14 UNK B   0      36.121   9.316 194.430  0.00  0.00    +0.000 A 
ATOM     11  C15 UNK B   0      35.198  11.062 196.443  0.00  0.00    +0.000 A 
ATOM     12  C16 UNK B   0      39.480   8.489 194.528  0.00  0.00    +0.000 A 
ATOM     13  C17 UNK B   0      34.857   9.142 194.997  0.00  0.00    +0.000 A 
ATOM     14  C18 UNK B   0      34.400  10.007 196.000  0.00  0.00    +0.000 A 
ATOM     15  C19 UNK B   0      41.312   9.424 196.406  0.00  0.00    +0.000 A 
ATOM     16  C20 UNK B   0      40.453   7.632 195.045  0.00  0.00    +0.000 A 
ATOM     17  C21 UNK B   0      41.363   8.096 195.991  0.00  0.00    +0.000 A 
ENDROOT
BRANCH   2  18
ATOM     18  O1  UNK B   0      38.034  13.116 193.977  0.00  0.00    +0.000 OA
ATOM     19  H28 UNK B   0      37.650  12.621 193.234  0.00  0.00    +0.000 HD
ENDBRANCH   2  18
BRANCH  13  20
ATOM     20  O3  UNK B   0      34.068   8.117 194.563  0.00  0.00    +0.000 OA
ATOM     21  H33 UNK B   0      33.609   7.726 195.325  0.00  0.00    +0.000 HD
ENDBRANCH  13  20
BRANCH  14  22
ATOM     22  O4  UNK B   0      33.166   9.830 196.553  0.00  0.00    +0.000 OA
ATOM     23  H34 UNK B   0      32.997   8.877 196.651  0.00  0.00    +0.000 HD
ENDBRANCH  14  22
BRANCH  17  24
ATOM     24  O5  UNK B   0      42.304   7.257 196.501  0.00  0.00    +0.000 OA
ATOM     25  H35 UNK B   0      42.092   6.346 196.234  0.00  0.00    +0.000 HD
ENDBRANCH  17  24
TORSDOF 4
REMARK  Name = TETCA.pdb
REMARK  10 active torsions:
REMARK  status: ('A' for Active; 'I' for Inactive)
REMARK    1  A    between atoms: O1_1  and  C14_14
REMARK    2  A    between atoms: O2_2  and  C16_16
REMARK    3  A    between atoms: O4_4  and  C19_19
REMARK    4  A    between atoms: O5_5  and  C22_22
REMARK    5  A    between atoms: O7_7  and  C29_29
REMARK    6  A    between atoms: N9_9  and  C15_15
REMARK    7  A    between atoms: N9_9  and  C27_27
REMARK    8  A    between atoms: N9_9  and  C28_28
REMARK    9  A    between atoms: C16_16  and  C25_25
REMARK   10  A    between atoms: C23_23  and  C30_30
REMARK                            x       y       z     vdW  Elec       q    Type
REMARK                         _______ _______ _______ _____ _____    ______ ____
ROOT
ATOM      1  O3  UNK T   1      34.398  11.722 202.554  0.00  0.00    +0.000 OA
ATOM      2  O6  UNK T   1      34.797  15.101 196.978  0.00  0.00    +0.000 OA
ATOM      3  C11 UNK T   1      36.032  13.866 200.136  0.00  0.00    +0.000 C 
ATOM      4  C12 UNK T   1      37.111  11.565 200.366  0.00  0.00    +0.000 C 
ATOM      5  C13 UNK T   1      36.859  12.754 199.422  0.00  0.00    +0.000 C 
ATOM      6  C14 UNK T   1      34.706  13.355 200.760  0.00  0.00    +0.000 C 
ATOM      7  C15 UNK T   1      35.780  15.023 199.154  0.00  0.00    +0.000 C 
ATOM      8  C16 UNK T   1      38.067  10.455 199.841  0.00  0.00    +0.000 C 
ATOM      9  C17 UNK T   1      35.762  11.035 200.746  0.00  0.00    +0.000 C 
ATOM     10  C18 UNK T   1      34.914  12.010 201.478  0.00  0.00    +0.000 C 
ATOM     11  C19 UNK T   1      33.580  13.206 199.752  0.00  0.00    +0.000 C 
ATOM     12  C20 UNK T   1      37.342   9.350 199.074  0.00  0.00    +0.000 A 
ATOM     13  C21 UNK T   1      34.741  14.640 198.119  0.00  0.00    +0.000 C 
ATOM     14  C22 UNK T   1      35.244   9.869 200.337  0.00  0.00    +0.000 C 
ATOM     15  C23 UNK T   1      33.606  13.744 198.515  0.00  0.00    +0.000 C 
ATOM     16  C24 UNK T   1      35.990   9.049 199.355  0.00  0.00    +0.000 A 
ATOM     17  C25 UNK T   1      38.801   9.797 201.026  0.00  0.00    +0.000 C 
ATOM     18  C26 UNK T   1      38.041   8.574 198.128  0.00  0.00    +0.000 A 
ATOM     19  C29 UNK T   1      35.370   8.005 198.644  0.00  0.00    +0.000 A 
ATOM     20  C31 UNK T   1      37.411   7.537 197.445  0.00  0.00    +0.000 A 
ATOM     21  C32 UNK T   1      36.075   7.256 197.700  0.00  0.00    +0.000 A 
ENDROOT
BRANCH  15  24
ATOM     22  O8  UNK T   1      32.131  12.351 197.312  0.00  0.00    +0.000 OA
ATOM     23  N10 UNK T   1      32.034  14.632 196.968  0.00  0.00    +0.000 N 
ATOM     24  C30 UNK T   1      32.524  13.488 197.548  0.00  0.00    +0.000 C 
ATOM     25  H54 UNK T   1      31.292  14.625 196.275  0.00  0.00    +0.000 HD
ATOM     26  H55 UNK T   1      32.412  15.541 197.214  0.00  0.00    +0.000 HD
ENDBRANCH  15  24
BRANCH   7  27
ATOM     27  N9  UNK T   1      35.286  16.232 199.808  0.00  0.00    +0.000 NA
ATOM     28  C27 UNK T   1      36.291  16.761 200.729  0.00  0.00    +0.000 C 
ATOM     29  C28 UNK T   1      34.925  17.238 198.811  0.00  0.00    +0.000 C 
ENDBRANCH   7  27
BRANCH   6  30
ATOM     30  O1  UNK T   1      34.251  14.269 201.757  0.00  0.00    +0.000 OA
ATOM     31  H41 UNK T   1      34.778  14.151 202.566  0.00  0.00    +0.000 HD
ENDBRANCH   6  30
BRANCH   8  32
ATOM     32  O2  UNK T   1      39.081  11.069 199.038  0.00  0.00    +0.000 OA
ATOM     33  H42 UNK T   1      39.311  11.923 199.443  0.00  0.00    +0.000 HD
ENDBRANCH   8  32
BRANCH  11  34
ATOM     34  O4  UNK T   1      32.513  12.469 200.244  0.00  0.00    +0.000 OA
ATOM     35  H50 UNK T   1      32.815  11.894 200.966  0.00  0.00    +0.000 HD
ENDBRANCH  11  34
BRANCH  14  36
ATOM     36  O5  UNK T   1      33.981   9.467 200.724  0.00  0.00    +0.000 OA
ATOM     37  H51 UNK T   1      34.004   8.547 201.028  0.00  0.00    +0.000 HD
ENDBRANCH  14  36
BRANCH  19  38
ATOM     38  O7  UNK T   1      34.068   7.639 198.843  0.00  0.00    +0.000 OA
ATOM     39  H56 UNK T   1      33.965   6.685 198.689  0.00  0.00    +0.000 HD
ENDBRANCH  19  38
TORSDOF 7
ENDMDL
MODEL 5
REMARK VINA RESULT:    -3.838      3.459      6.830
REMARK INTER + INTRA:          -5.622
REMARK INTER:                  -5.296
REMARK INTRA:                  -0.326
REMARK UNBOUND:                -0.326
REMARK  Name = BCBL.pdb
REMARK  4 active torsions:
REMARK  status: ('A' for Active; 'I' for Inactive)
REMARK    1  A    between atoms: O1_1  and  C6_6
REMARK    2  A    between atoms: O3_3  and  C17_17
REMARK    3  A    between atoms: O4_4  and  C18_18
REMARK    4  A    between atoms: O5_5  and  C21_21
REMARK                            x       y       z     vdW  Elec       q    Type
REMARK                         _______ _______ _______ _____ _____    ______ ____
ROOT
ATOM      1  O2  UNK B   0      34.961  19.342 198.302  0.00  0.00    +0.000 OA
ATOM      2  C6  UNK B   0      37.136  19.509 197.186  0.00  0.00    +0.000 C 
ATOM      3  C7  UNK B   0      37.876  19.661 198.546  0.00  0.00    +0.000 C 
ATOM      4  C8  UNK B   0      37.214  18.018 196.774  0.00  0.00    +0.000 C 
ATOM      5  C9  UNK B   0      38.818  18.479 198.490  0.00  0.00    +0.000 A 
ATOM      6  C10 UNK B   0      38.442  17.567 197.499  0.00  0.00    +0.000 A 
ATOM      7  C11 UNK B   0      35.699  20.008 197.278  0.00  0.00    +0.000 C 
ATOM      8  C12 UNK B   0      36.923  19.636 199.720  0.00  0.00    +0.000 A 
ATOM      9  C13 UNK B   0      35.544  19.459 199.537  0.00  0.00    +0.000 A 
ATOM     10  C14 UNK B   0      39.946  18.250 199.265  0.00  0.00    +0.000 A 
ATOM     11  C15 UNK B   0      39.157  16.397 197.289  0.00  0.00    +0.000 A 
ATOM     12  C16 UNK B   0      37.404  19.797 201.029  0.00  0.00    +0.000 A 
ATOM     13  C17 UNK B   0      40.679  17.079 199.052  0.00  0.00    +0.000 A 
ATOM     14  C18 UNK B   0      40.285  16.157 198.074  0.00  0.00    +0.000 A 
ATOM     15  C19 UNK B   0      34.681  19.371 200.633  0.00  0.00    +0.000 A 
ATOM     16  C20 UNK B   0      36.539  19.731 202.124  0.00  0.00    +0.000 A 
ATOM     17  C21 UNK B   0      35.179  19.508 201.926  0.00  0.00    +0.000 A 
ENDROOT
BRANCH   2  18
ATOM     18  O1  UNK B   0      37.792  20.306 196.193  0.00  0.00    +0.000 OA
ATOM     19  H28 UNK B   0      37.820  19.798 195.365  0.00  0.00    +0.000 HD
ENDBRANCH   2  18
BRANCH  13  20
ATOM     20  O3  UNK B   0      41.787  16.843 199.812  0.00  0.00    +0.000 OA
ATOM     21  H33 UNK B   0      42.196  17.692 200.050  0.00  0.00    +0.000 HD
ENDBRANCH  13  20
BRANCH  14  22
ATOM     22  O4  UNK B   0      41.002  15.016 197.875  0.00  0.00    +0.000 OA
ATOM     23  H34 UNK B   0      41.891  15.130 198.254  0.00  0.00    +0.000 HD
ENDBRANCH  14  22
BRANCH  17  24
ATOM     24  O5  UNK B   0      34.338  19.434 202.993  0.00  0.00    +0.000 OA
ATOM     25  H35 UNK B   0      34.064  18.508 203.114  0.00  0.00    +0.000 HD
ENDBRANCH  17  24
TORSDOF 4
REMARK  Name = TETCA.pdb
REMARK  10 active torsions:
REMARK  status: ('A' for Active; 'I' for Inactive)
REMARK    1  A    between atoms: O1_1  and  C14_14
REMARK    2  A    between atoms: O2_2  and  C16_16
REMARK    3  A    between atoms: O4_4  and  C19_19
REMARK    4  A    between atoms: O5_5  and  C22_22
REMARK    5  A    between atoms: O7_7  and  C29_29
REMARK    6  A    between atoms: N9_9  and  C15_15
REMARK    7  A    between atoms: N9_9  and  C27_27
REMARK    8  A    between atoms: N9_9  and  C28_28
REMARK    9  A    between atoms: C16_16  and  C25_25
REMARK   10  A    between atoms: C23_23  and  C30_30
REMARK                            x       y       z     vdW  Elec       q    Type
REMARK                         _______ _______ _______ _____ _____    ______ ____
ROOT
ATOM      1  O3  UNK T   1      36.239  11.016 196.318  0.00  0.00    +0.000 OA
ATOM      2  O6  UNK T   1      38.239  16.452 193.298  0.00  0.00    +0.000 OA
ATOM      3  C11 UNK T   1      35.783  14.264 194.783  0.00  0.00    +0.000 C 
ATOM      4  C12 UNK T   1      35.329  14.239 197.294  0.00  0.00    +0.000 C 
ATOM      5  C13 UNK T   1      35.779  15.099 196.100  0.00  0.00    +0.000 C 
ATOM      6  C14 UNK T   1      36.613  12.955 194.877  0.00  0.00    +0.000 C 
ATOM      7  C15 UNK T   1      36.262  15.150 193.621  0.00  0.00    +0.000 C 
ATOM      8  C16 UNK T   1      35.116  14.986 198.644  0.00  0.00    +0.000 C 
ATOM      9  C17 UNK T   1      36.317  13.118 197.403  0.00  0.00    +0.000 C 
ATOM     10  C18 UNK T   1      36.360  12.232 196.211  0.00  0.00    +0.000 C 
ATOM     11  C19 UNK T   1      38.106  13.171 194.709  0.00  0.00    +0.000 C 
ATOM     12  C20 UNK T   1      36.379  15.046 199.503  0.00  0.00    +0.000 A 
ATOM     13  C21 UNK T   1      37.756  15.394 193.703  0.00  0.00    +0.000 C 
ATOM     14  C22 UNK T   1      37.228  12.979 198.375  0.00  0.00    +0.000 C 
ATOM     15  C23 UNK T   1      38.649  14.307 194.224  0.00  0.00    +0.000 C 
ATOM     16  C24 UNK T   1      37.371  14.044 199.393  0.00  0.00    +0.000 A 
ATOM     17  C25 UNK T   1      34.025  14.273 199.466  0.00  0.00    +0.000 C 
ATOM     18  C26 UNK T   1      36.528  16.064 200.465  0.00  0.00    +0.000 A 
ATOM     19  C29 UNK T   1      38.503  14.124 200.224  0.00  0.00    +0.000 A 
ATOM     20  C31 UNK T   1      37.651  16.116 201.286  0.00  0.00    +0.000 A 
ATOM     21  C32 UNK T   1      38.640  15.149 201.162  0.00  0.00    +0.000 A 
ENDROOT
BRANCH  15  24
ATOM     22  O8  UNK T   1      40.819  14.282 195.148  0.00  0.00    +0.000 OA
ATOM     23  N10 UNK T   1      40.557  14.918 192.944  0.00  0.00    +0.000 N 
ATOM     24  C30 UNK T   1      40.110  14.494 194.171  0.00  0.00    +0.000 C 
ATOM     25  H54 UNK T   1      41.537  15.100 192.747  0.00  0.00    +0.000 HD
ATOM     26  H55 UNK T   1      39.908  15.073 192.180  0.00  0.00    +0.000 HD
ENDBRANCH  15  24
BRANCH   7  27
ATOM     27  N9  UNK T   1      36.011  14.558 192.309  0.00  0.00    +0.000 NA
ATOM     28  C27 UNK T   1      34.574  14.417 192.079  0.00  0.00    +0.000 C 
ATOM     29  C28 UNK T   1      36.622  15.371 191.259  0.00  0.00    +0.000 C 
ENDBRANCH   7  27
BRANCH   6  30
ATOM     30  O1  UNK T   1      36.208  12.047 193.853  0.00  0.00    +0.000 OA
ATOM     31  H41 UNK T   1      36.677  11.203 193.968  0.00  0.00    +0.000 HD
ENDBRANCH   6  30
BRANCH   8  32
ATOM     32  O2  UNK T   1      34.612  16.296 198.365  0.00  0.00    +0.000 OA
ATOM     33  H42 UNK T   1      34.262  16.298 197.458  0.00  0.00    +0.000 HD
ENDBRANCH   8  32
BRANCH  11  34
ATOM     34  O4  UNK T   1      38.855  12.069 195.096  0.00  0.00    +0.000 OA
ATOM     35  H50 UNK T   1      38.717  11.342 194.469  0.00  0.00    +0.000 HD
ENDBRANCH  11  34
BRANCH  14  36
ATOM     36  O5  UNK T   1      38.114  11.919 198.385  0.00  0.00    +0.000 OA
ATOM     37  H51 UNK T   1      39.026  12.249 198.364  0.00  0.00    +0.000 HD
ENDBRANCH  14  36
BRANCH  19  38
ATOM     38  O7  UNK T   1      39.516  13.207 200.192  0.00  0.00    +0.000 OA
ATOM     39  H56 UNK T   1      39.238  12.424 199.688  0.00  0.00    +0.000 HD
ENDBRANCH  19  38
TORSDOF 7
ENDMDL
MODEL 6
REMARK VINA RESULT:    -3.837      4.529      7.961
REMARK INTER + INTRA:          -5.621
REMARK INTER:                  -5.298
REMARK INTRA:                  -0.323
REMARK UNBOUND:                -0.326
REMARK  Name = BCBL.pdb
REMARK  4 active torsions:
REMARK  status: ('A' for Active; 'I' for Inactive)
REMARK    1  A    between atoms: O1_1  and  C6_6
REMARK    2  A    between atoms: O3_3  and  C17_17
REMARK    3  A    between atoms: O4_4  and  C18_18
REMARK    4  A    between atoms: O5_5  and  C21_21
REMARK                            x       y       z     vdW  Elec       q    Type
REMARK                         _______ _______ _______ _____ _____    ______ ____
ROOT
ATOM      1  O2  UNK B   0      37.415  13.154 198.556  0.00  0.00    +0.000 OA
ATOM      2  C6  UNK B   0      38.323  14.637 196.829  0.00  0.00    +0.000 C 
ATOM      3  C7  UNK B   0      38.954  15.574 197.899  0.00  0.00    +0.000 C 
ATOM      4  C8  UNK B   0      39.427  13.662 196.352  0.00  0.00    +0.000 C 
ATOM      5  C9  UNK B   0      40.412  15.513 197.505  0.00  0.00    +0.000 A 
ATOM      6  C10 UNK B   0      40.668  14.443 196.642  0.00  0.00    +0.000 A 
ATOM      7  C11 UNK B   0      37.106  13.906 197.383  0.00  0.00    +0.000 C 
ATOM      8  C12 UNK B   0      38.674  15.102 199.308  0.00  0.00    +0.000 A 
ATOM      9  C13 UNK B   0      37.951  13.926 199.554  0.00  0.00    +0.000 A 
ATOM     10  C14 UNK B   0      41.435  16.371 197.882  0.00  0.00    +0.000 A 
ATOM     11  C15 UNK B   0      41.948  14.188 196.172  0.00  0.00    +0.000 A 
ATOM     12  C16 UNK B   0      39.132  15.842 200.410  0.00  0.00    +0.000 A 
ATOM     13  C17 UNK B   0      42.726  16.129 197.405  0.00  0.00    +0.000 A 
ATOM     14  C18 UNK B   0      42.981  15.041 196.559  0.00  0.00    +0.000 A 
ATOM     15  C19 UNK B   0      37.755  13.463 200.859  0.00  0.00    +0.000 A 
ATOM     16  C20 UNK B   0      38.918  15.391 201.714  0.00  0.00    +0.000 A 
ATOM     17  C21 UNK B   0      38.239  14.197 201.938  0.00  0.00    +0.000 A 
ENDROOT
BRANCH   2  18
ATOM     18  O1  UNK B   0      37.871  15.417 195.716  0.00  0.00    +0.000 OA
ATOM     19  H28 UNK B   0      38.651  15.728 195.227  0.00  0.00    +0.000 HD
ENDBRANCH   2  18
BRANCH  13  20
ATOM     20  O3  UNK B   0      43.739  16.964 197.774  0.00  0.00    +0.000 OA
ATOM     21  H33 UNK B   0      44.575  16.628 197.409  0.00  0.00    +0.000 HD
ENDBRANCH  13  20
BRANCH  14  22
ATOM     22  O4  UNK B   0      44.244  14.808 196.101  0.00  0.00    +0.000 OA
ATOM     23  H34 UNK B   0      44.217  14.718 195.133  0.00  0.00    +0.000 HD
ENDBRANCH  14  22
BRANCH  17  24
ATOM     24  O5  UNK B   0      38.039  13.754 203.209  0.00  0.00    +0.000 OA
ATOM     25  H35 UNK B   0      38.193  14.490 203.827  0.00  0.00    +0.000 HD
ENDBRANCH  17  24
TORSDOF 4
REMARK  Name = TETCA.pdb
REMARK  10 active torsions:
REMARK  status: ('A' for Active; 'I' for Inactive)
REMARK    1  A    between atoms: O1_1  and  C14_14
REMARK    2  A    between atoms: O2_2  and  C16_16
REMARK    3  A    between atoms: O4_4  and  C19_19
REMARK    4  A    between atoms: O5_5  and  C22_22
REMARK    5  A    between atoms: O7_7  and  C29_29
REMARK    6  A    between atoms: N9_9  and  C15_15
REMARK    7  A    between atoms: N9_9  and  C27_27
REMARK    8  A    between atoms: N9_9  and  C28_28
REMARK    9  A    between atoms: C16_16  and  C25_25
REMARK   10  A    between atoms: C23_23  and  C30_30
REMARK                            x       y       z     vdW  Elec       q    Type
REMARK                         _______ _______ _______ _____ _____    ______ ____
ROOT
ATOM      1  O3  UNK T   1      44.152   8.398 195.932  0.00  0.00    +0.000 OA
ATOM      2  O6  UNK T   1      40.458  12.684 192.669  0.00  0.00    +0.000 OA
ATOM      3  C11 UNK T   1      41.026   9.791 194.750  0.00  0.00    +0.000 C 
ATOM      4  C12 UNK T   1      41.346   9.975 197.274  0.00  0.00    +0.000 C 
ATOM      5  C13 UNK T   1      40.678  10.600 196.037  0.00  0.00    +0.000 C 
ATOM      6  C14 UNK T   1      42.550   9.597 194.527  0.00  0.00    +0.000 C 
ATOM      7  C15 UNK T   1      40.362  10.459 193.533  0.00  0.00    +0.000 C 
ATOM      8  C16 UNK T   1      40.949  10.581 198.653  0.00  0.00    +0.000 C 
ATOM      9  C17 UNK T   1      42.822  10.021 197.026  0.00  0.00    +0.000 C 
ATOM     10  C18 UNK T   1      43.260   9.236 195.843  0.00  0.00    +0.000 C 
ATOM     11  C19 UNK T   1      43.232  10.807 193.915  0.00  0.00    +0.000 C 
ATOM     12  C20 UNK T   1      41.848  11.741 199.082  0.00  0.00    +0.000 A 
ATOM     13  C21 UNK T   1      41.080  11.741 193.159  0.00  0.00    +0.000 C 
ATOM     14  C22 UNK T   1      43.692  10.819 197.661  0.00  0.00    +0.000 C 
ATOM     15  C23 UNK T   1      42.567  11.827 193.333  0.00  0.00    +0.000 C 
ATOM     16  C24 UNK T   1      43.185  11.818 198.629  0.00  0.00    +0.000 A 
ATOM     17  C25 UNK T   1      41.038   9.494 199.743  0.00  0.00    +0.000 C 
ATOM     18  C26 UNK T   1      41.369  12.703 199.991  0.00  0.00    +0.000 A 
ATOM     19  C29 UNK T   1      43.984  12.888 199.070  0.00  0.00    +0.000 A 
ATOM     20  C31 UNK T   1      42.181  13.747 200.425  0.00  0.00    +0.000 A 
ATOM     21  C32 UNK T   1      43.487  13.842 199.962  0.00  0.00    +0.000 A 
ENDROOT
BRANCH  15  24
ATOM     22  O8  UNK T   1      44.084  13.621 193.538  0.00  0.00    +0.000 OA
ATOM     23  N10 UNK T   1      42.938  13.357 191.552  0.00  0.00    +0.000 N 
ATOM     24  C30 UNK T   1      43.278  13.019 192.838  0.00  0.00    +0.000 C 
ATOM     25  H54 UNK T   1      43.335  14.158 191.069  0.00  0.00    +0.000 HD
ATOM     26  H55 UNK T   1      42.260  12.809 191.033  0.00  0.00    +0.000 HD
ENDBRANCH  15  24
BRANCH   7  27
ATOM     27  N9  UNK T   1      40.373   9.616 192.341  0.00  0.00    +0.000 NA
ATOM     28  C27 UNK T   1      39.580   8.408 192.563  0.00  0.00    +0.000 C 
ATOM     29  C28 UNK T   1      39.863  10.358 191.189  0.00  0.00    +0.000 C 
ENDBRANCH   7  27
BRANCH   6  30
ATOM     30  O1  UNK T   1      42.778   8.500 193.642  0.00  0.00    +0.000 OA
ATOM     31  H41 UNK T   1      42.156   7.784 193.851  0.00  0.00    +0.000 HD
ENDBRANCH   6  30
BRANCH   8  32
ATOM     32  O2  UNK T   1      39.575  10.978 198.599  0.00  0.00    +0.000 OA
ATOM     33  H42 UNK T   1      39.491  11.838 199.045  0.00  0.00    +0.000 HD
ENDBRANCH   8  32
BRANCH  11  34
ATOM     34  O4  UNK T   1      44.614  10.747 194.005  0.00  0.00    +0.000 OA
ATOM     35  H50 UNK T   1      45.006  10.855 193.124  0.00  0.00    +0.000 HD
ENDBRANCH  11  34
BRANCH  14  36
ATOM     36  O5  UNK T   1      45.038  10.807 197.353  0.00  0.00    +0.000 OA
ATOM     37  H51 UNK T   1      45.554  11.132 198.107  0.00  0.00    +0.000 HD
ENDBRANCH  14  36
BRANCH  19  38
ATOM     38  O7  UNK T   1      45.287  13.052 198.689  0.00  0.00    +0.000 OA
ATOM     39  H56 UNK T   1      45.333  13.216 197.732  0.00  0.00    +0.000 HD
ENDBRANCH  19  38
TORSDOF 7
ENDMDL
MODEL 7
REMARK VINA RESULT:    -3.837      4.988      9.679
REMARK INTER + INTRA:          -5.621
REMARK INTER:                  -5.300
REMARK INTRA:                  -0.321
REMARK UNBOUND:                -0.326
REMARK  Name = BCBL.pdb
REMARK  4 active torsions:
REMARK  status: ('A' for Active; 'I' for Inactive)
REMARK    1  A    between atoms: O1_1  and  C6_6
REMARK    2  A    between atoms: O3_3  and  C17_17
REMARK    3  A    between atoms: O4_4  and  C18_18
REMARK    4  A    between atoms: O5_5  and  C21_21
REMARK                            x       y       z     vdW  Elec       q    Type
REMARK                         _______ _______ _______ _____ _____    ______ ____
ROOT
ATOM      1  O2  UNK B   0      42.417  13.691 194.258  0.00  0.00    +0.000 OA
ATOM      2  C6  UNK B   0      40.509  15.072 193.580  0.00  0.00    +0.000 C 
ATOM      3  C7  UNK B   0      40.879  14.927 192.075  0.00  0.00    +0.000 C 
ATOM      4  C8  UNK B   0      39.428  14.011 193.900  0.00  0.00    +0.000 C 
ATOM      5  C9  UNK B   0      39.615  14.301 191.532  0.00  0.00    +0.000 A 
ATOM      6  C10 UNK B   0      38.811  13.791 192.556  0.00  0.00    +0.000 A 
ATOM      7  C11 UNK B   0      41.739  14.930 194.468  0.00  0.00    +0.000 C 
ATOM      8  C12 UNK B   0      42.121  14.090 191.871  0.00  0.00    +0.000 A 
ATOM      9  C13 UNK B   0      42.798  13.510 192.954  0.00  0.00    +0.000 A 
ATOM     10  C14 UNK B   0      39.208  14.211 190.208  0.00  0.00    +0.000 A 
ATOM     11  C15 UNK B   0      37.611  13.153 192.279  0.00  0.00    +0.000 A 
ATOM     12  C16 UNK B   0      42.632  13.880 190.580  0.00  0.00    +0.000 A 
ATOM     13  C17 UNK B   0      37.995  13.580 189.920  0.00  0.00    +0.000 A 
ATOM     14  C18 UNK B   0      37.204  13.050 190.948  0.00  0.00    +0.000 A 
ATOM     15  C19 UNK B   0      43.906  12.683 192.748  0.00  0.00    +0.000 A 
ATOM     16  C20 UNK B   0      43.753  13.071 190.376  0.00  0.00    +0.000 A 
ATOM     17  C21 UNK B   0      44.383  12.466 191.458  0.00  0.00    +0.000 A 
ENDROOT
BRANCH   2  18
ATOM     18  O1  UNK B   0      39.972  16.378 193.817  0.00  0.00    +0.000 OA
ATOM     19  H28 UNK B   0      39.034  16.372 193.560  0.00  0.00    +0.000 HD
ENDBRANCH   2  18
BRANCH  13  20
ATOM     20  O3  UNK B   0      37.589  13.483 188.622  0.00  0.00    +0.000 OA
ATOM     21  H33 UNK B   0      36.627  13.337 188.601  0.00  0.00    +0.000 HD
ENDBRANCH  13  20
BRANCH  14  22
ATOM     22  O4  UNK B   0      36.025  12.432 190.660  0.00  0.00    +0.000 OA
ATOM     23  H34 UNK B   0      35.312  12.858 191.165  0.00  0.00    +0.000 HD
ENDBRANCH  14  22
BRANCH  17  24
ATOM     24  O5  UNK B   0      45.469  11.670 191.258  0.00  0.00    +0.000 OA
ATOM     25  H35 UNK B   0      46.236  12.231 191.049  0.00  0.00    +0.000 HD
ENDBRANCH  17  24
TORSDOF 4
REMARK  Name = TETCA.pdb
REMARK  10 active torsions:
REMARK  status: ('A' for Active; 'I' for Inactive)
REMARK    1  A    between atoms: O1_1  and  C14_14
REMARK    2  A    between atoms: O2_2  and  C16_16
REMARK    3  A    between atoms: O4_4  and  C19_19
REMARK    4  A    between atoms: O5_5  and  C22_22
REMARK    5  A    between atoms: O7_7  and  C29_29
REMARK    6  A    between atoms: N9_9  and  C15_15
REMARK    7  A    between atoms: N9_9  and  C27_27
REMARK    8  A    between atoms: N9_9  and  C28_28
REMARK    9  A    between atoms: C16_16  and  C25_25
REMARK   10  A    between atoms: C23_23  and  C30_30
REMARK                            x       y       z     vdW  Elec       q    Type
REMARK                         _______ _______ _______ _____ _____    ______ ____
ROOT
ATOM      1  O3  UNK T   1      36.019   7.948 195.244  0.00  0.00    +0.000 OA
ATOM      2  O6  UNK T   1      36.003  14.455 195.813  0.00  0.00    +0.000 OA
ATOM      3  C11 UNK T   1      37.205  11.125 196.515  0.00  0.00    +0.000 C 
ATOM      4  C12 UNK T   1      38.875   9.936 194.996  0.00  0.00    +0.000 C 
ATOM      5  C13 UNK T   1      38.389  11.300 195.516  0.00  0.00    +0.000 C 
ATOM      6  C14 UNK T   1      36.026  10.291 195.944  0.00  0.00    +0.000 C 
ATOM      7  C15 UNK T   1      36.732  12.509 196.992  0.00  0.00    +0.000 C 
ATOM      8  C16 UNK T   1      40.162   9.948 194.120  0.00  0.00    +0.000 C 
ATOM      9  C17 UNK T   1      37.706   9.311 194.297  0.00  0.00    +0.000 C 
ATOM     10  C18 UNK T   1      36.539   9.058 195.180  0.00  0.00    +0.000 C 
ATOM     11  C19 UNK T   1      35.105  11.085 195.036  0.00  0.00    +0.000 C 
ATOM     12  C20 UNK T   1      39.874  10.117 192.629  0.00  0.00    +0.000 A 
ATOM     13  C21 UNK T   1      35.964  13.227 195.900  0.00  0.00    +0.000 C 
ATOM     14  C22 UNK T   1      37.595   9.139 192.973  0.00  0.00    +0.000 C 
ATOM     15  C23 UNK T   1      35.103  12.432 194.964  0.00  0.00    +0.000 C 
ATOM     16  C24 UNK T   1      38.646   9.681 192.081  0.00  0.00    +0.000 A 
ATOM     17  C25 UNK T   1      40.927   8.622 194.301  0.00  0.00    +0.000 C 
ATOM     18  C26 UNK T   1      40.864  10.644 191.776  0.00  0.00    +0.000 A 
ATOM     19  C29 UNK T   1      38.434   9.831 190.698  0.00  0.00    +0.000 A 
ATOM     20  C31 UNK T   1      40.637  10.771 190.408  0.00  0.00    +0.000 A 
ATOM     21  C32 UNK T   1      39.422  10.369 189.870  0.00  0.00    +0.000 A 
ENDROOT
BRANCH  15  24
ATOM     22  O8  UNK T   1      34.230  12.835 192.810  0.00  0.00    +0.000 OA
ATOM     23  N10 UNK T   1      33.514  14.154 194.564  0.00  0.00    +0.000 N 
ATOM     24  C30 UNK T   1      34.250  13.145 193.996  0.00  0.00    +0.000 C 
ATOM     25  H54 UNK T   1      32.883  14.744 194.030  0.00  0.00    +0.000 HD
ATOM     26  H55 UNK T   1      33.583  14.352 195.557  0.00  0.00    +0.000 HD
ENDBRANCH  15  24
BRANCH   7  27
ATOM     27  N9  UNK T   1      35.842  12.443 198.148  0.00  0.00    +0.000 NA
ATOM     28  C27 UNK T   1      36.549  11.896 199.306  0.00  0.00    +0.000 C 
ATOM     29  C28 UNK T   1      35.306  13.768 198.454  0.00  0.00    +0.000 C 
ENDBRANCH   7  27
BRANCH   6  30
ATOM     30  O1  UNK T   1      35.223   9.787 197.012  0.00  0.00    +0.000 OA
ATOM     31  H41 UNK T   1      34.579  10.465 197.277  0.00  0.00    +0.000 HD
ENDBRANCH   6  30
BRANCH   8  32
ATOM     32  O2  UNK T   1      41.033  10.977 194.604  0.00  0.00    +0.000 OA
ATOM     33  H42 UNK T   1      41.927  10.603 194.686  0.00  0.00    +0.000 HD
ENDBRANCH   8  32
BRANCH  11  34
ATOM     34  O4  UNK T   1      34.252  10.278 194.298  0.00  0.00    +0.000 OA
ATOM     35  H50 UNK T   1      33.339  10.595 194.387  0.00  0.00    +0.000 HD
ENDBRANCH  11  34
BRANCH  14  36
ATOM     36  O5  UNK T   1      36.470   8.568 192.412  0.00  0.00    +0.000 OA
ATOM     37  H51 UNK T   1      35.827   9.258 192.184  0.00  0.00    +0.000 HD
ENDBRANCH  14  36
BRANCH  19  38
ATOM     38  O7  UNK T   1      37.281   9.442 190.075  0.00  0.00    +0.000 OA
ATOM     39  H56 UNK T   1      37.493   8.894 189.301  0.00  0.00    +0.000 HD
ENDBRANCH  19  38
TORSDOF 7
ENDMDL
MODEL 8
REMARK VINA RESULT:    -3.836      4.134      8.155
REMARK INTER + INTRA:          -5.619
REMARK INTER:                  -5.297
REMARK INTRA:                  -0.323
REMARK UNBOUND:                -0.326
REMARK  Name = BCBL.pdb
REMARK  4 active torsions:
REMARK  status: ('A' for Active; 'I' for Inactive)
REMARK    1  A    between atoms: O1_1  and  C6_6
REMARK    2  A    between atoms: O3_3  and  C17_17
REMARK    3  A    between atoms: O4_4  and  C18_18
REMARK    4  A    between atoms: O5_5  and  C21_21
REMARK                            x       y       z     vdW  Elec       q    Type
REMARK                         _______ _______ _______ _____ _____    ______ ____
ROOT
ATOM      1  O2  UNK B   0      44.205  21.189 200.652  0.00  0.00    +0.000 OA
ATOM      2  C6  UNK B   0      42.203  20.493 201.882  0.00  0.00    +0.000 C 
ATOM      3  C7  UNK B   0      41.270  21.202 200.859  0.00  0.00    +0.000 C 
ATOM      4  C8  UNK B   0      42.286  18.999 201.482  0.00  0.00    +0.000 C 
ATOM      5  C9  UNK B   0      40.428  20.038 200.388  0.00  0.00    +0.000 A 
ATOM      6  C10 UNK B   0      41.003  18.812 200.739  0.00  0.00    +0.000 A 
ATOM      7  C11 UNK B   0      43.574  21.155 201.932  0.00  0.00    +0.000 C 
ATOM      8  C12 UNK B   0      42.046  21.889 199.759  0.00  0.00    +0.000 A 
ATOM      9  C13 UNK B   0      43.446  21.827 199.705  0.00  0.00    +0.000 A 
ATOM     10  C14 UNK B   0      39.220  20.078 199.706  0.00  0.00    +0.000 A 
ATOM     11  C15 UNK B   0      40.406  17.610 200.386  0.00  0.00    +0.000 A 
ATOM     12  C16 UNK B   0      41.375  22.615 198.761  0.00  0.00    +0.000 A 
ATOM     13  C17 UNK B   0      38.607  18.872 199.356  0.00  0.00    +0.000 A 
ATOM     14  C18 UNK B   0      39.198  17.647 199.689  0.00  0.00    +0.000 A 
ATOM     15  C19 UNK B   0      44.150  22.409 198.646  0.00  0.00    +0.000 A 
ATOM     16  C20 UNK B   0      42.079  23.215 197.715  0.00  0.00    +0.000 A 
ATOM     17  C21 UNK B   0      43.465  23.104 197.652  0.00  0.00    +0.000 A 
ENDROOT
BRANCH   2  18
ATOM     18  O1  UNK B   0      41.641  20.598 203.195  0.00  0.00    +0.000 OA
ATOM     19  H28 UNK B   0      41.022  19.858 203.321  0.00  0.00    +0.000 HD
ENDBRANCH   2  18
BRANCH  13  20
ATOM     20  O3  UNK B   0      37.421  18.902 198.682  0.00  0.00    +0.000 OA
ATOM     21  H33 UNK B   0      36.857  19.595 199.063  0.00  0.00    +0.000 HD
ENDBRANCH  13  20
BRANCH  14  22
ATOM     22  O4  UNK B   0      38.596  16.475 199.341  0.00  0.00    +0.000 OA
ATOM     23  H34 UNK B   0      38.986  16.153 198.510  0.00  0.00    +0.000 HD
ENDBRANCH  14  22
BRANCH  17  24
ATOM     24  O5  UNK B   0      44.150  23.680 196.628  0.00  0.00    +0.000 OA
ATOM     25  H35 UNK B   0      44.615  24.467 196.962  0.00  0.00    +0.000 HD
ENDBRANCH  17  24
TORSDOF 4
REMARK  Name = TETCA.pdb
REMARK  10 active torsions:
REMARK  status: ('A' for Active; 'I' for Inactive)
REMARK    1  A    between atoms: O1_1  and  C14_14
REMARK    2  A    between atoms: O2_2  and  C16_16
REMARK    3  A    between atoms: O4_4  and  C19_19
REMARK    4  A    between atoms: O5_5  and  C22_22
REMARK    5  A    between atoms: O7_7  and  C29_29
REMARK    6  A    between atoms: N9_9  and  C15_15
REMARK    7  A    between atoms: N9_9  and  C27_27
REMARK    8  A    between atoms: N9_9  and  C28_28
REMARK    9  A    between atoms: C16_16  and  C25_25
REMARK   10  A    between atoms: C23_23  and  C30_30
REMARK                            x       y       z     vdW  Elec       q    Type
REMARK                         _______ _______ _______ _____ _____    ______ ____
ROOT
ATOM      1  O3  UNK T   1      43.796  12.891 198.233  0.00  0.00    +0.000 OA
ATOM      2  O6  UNK T   1      41.872  15.800 203.756  0.00  0.00    +0.000 OA
ATOM      3  C11 UNK T   1      44.239  14.979 201.159  0.00  0.00    +0.000 C 
ATOM      4  C12 UNK T   1      44.337  16.261 198.954  0.00  0.00    +0.000 C 
ATOM      5  C13 UNK T   1      44.001  16.349 200.454  0.00  0.00    +0.000 C 
ATOM      6  C14 UNK T   1      43.497  13.793 200.485  0.00  0.00    +0.000 C 
ATOM      7  C15 UNK T   1      43.869  15.100 202.647  0.00  0.00    +0.000 C 
ATOM      8  C16 UNK T   1      44.305  17.599 198.159  0.00  0.00    +0.000 C 
ATOM      9  C17 UNK T   1      43.423  15.224 198.378  0.00  0.00    +0.000 C 
ATOM     10  C18 UNK T   1      43.609  13.867 198.953  0.00  0.00    +0.000 C 
ATOM     11  C19 UNK T   1      42.030  13.701 200.868  0.00  0.00    +0.000 C 
ATOM     12  C20 UNK T   1      42.934  17.912 197.562  0.00  0.00    +0.000 A 
ATOM     13  C21 UNK T   1      42.365  15.156 202.829  0.00  0.00    +0.000 C 
ATOM     14  C22 UNK T   1      42.395  15.467 197.553  0.00  0.00    +0.000 C 
ATOM     15  C23 UNK T   1      41.484  14.364 201.908  0.00  0.00    +0.000 C 
ATOM     16  C24 UNK T   1      42.038  16.868 197.234  0.00  0.00    +0.000 A 
ATOM     17  C25 UNK T   1      45.317  17.537 196.997  0.00  0.00    +0.000 C 
ATOM     18  C26 UNK T   1      42.581  19.244 197.268  0.00  0.00    +0.000 A 
ATOM     19  C29 UNK T   1      40.797  17.201 196.661  0.00  0.00    +0.000 A 
ATOM     20  C31 UNK T   1      41.353  19.549 196.689  0.00  0.00    +0.000 A 
ATOM     21  C32 UNK T   1      40.459  18.529 196.389  0.00  0.00    +0.000 A 
ENDROOT
BRANCH  15  24
ATOM     22  O8  UNK T   1      39.213  14.517 201.291  0.00  0.00    +0.000 OA
ATOM     23  N10 UNK T   1      39.738  14.007 203.481  0.00  0.00    +0.000 N 
ATOM     24  C30 UNK T   1      40.036  14.308 202.176  0.00  0.00    +0.000 C 
ATOM     25  H54 UNK T   1      38.785  13.938 203.827  0.00  0.00    +0.000 HD
ATOM     26  H55 UNK T   1      40.476  13.847 204.158  0.00  0.00    +0.000 HD
ENDBRANCH  15  24
BRANCH   7  27
ATOM     27  N9  UNK T   1      44.342  13.974 203.448  0.00  0.00    +0.000 NA
ATOM     28  C27 UNK T   1      45.803  13.931 203.455  0.00  0.00    +0.000 C 
ATOM     29  C28 UNK T   1      43.825  14.068 204.812  0.00  0.00    +0.000 C 
ENDBRANCH   7  27
BRANCH   6  30
ATOM     30  O1  UNK T   1      44.103  12.558 200.866  0.00  0.00    +0.000 OA
ATOM     31  H41 UNK T   1      45.064  12.618 200.735  0.00  0.00    +0.000 HD
ENDBRANCH   6  30
BRANCH   8  32
ATOM     32  O2  UNK T   1      44.753  18.652 199.020  0.00  0.00    +0.000 OA
ATOM     33  H42 UNK T   1      43.993  18.957 199.544  0.00  0.00    +0.000 HD
ENDBRANCH   8  32
BRANCH  11  34
ATOM     34  O4  UNK T   1      41.312  12.849 200.042  0.00  0.00    +0.000 OA
ATOM     35  H50 UNK T   1      40.563  12.472 200.530  0.00  0.00    +0.000 HD
ENDBRANCH  11  34
BRANCH  14  36
ATOM     36  O5  UNK T   1      41.591  14.447 197.083  0.00  0.00    +0.000 OA
ATOM     37  H51 UNK T   1      41.530  14.492 196.115  0.00  0.00    +0.000 HD
ENDBRANCH  14  36
BRANCH  19  38
ATOM     38  O7  UNK T   1      39.864  16.266 196.309  0.00  0.00    +0.000 OA
ATOM     39  H56 UNK T   1      40.214  15.699 195.602  0.00  0.00    +0.000 HD
ENDBRANCH  19  38
TORSDOF 7
ENDMDL
MODEL 9
REMARK VINA RESULT:    -3.836      2.668      5.278
REMARK INTER + INTRA:          -5.619
REMARK INTER:                  -5.293
REMARK INTRA:                  -0.326
REMARK UNBOUND:                -0.326
REMARK  Name = BCBL.pdb
REMARK  4 active torsions:
REMARK  status: ('A' for Active; 'I' for Inactive)
REMARK    1  A    between atoms: O1_1  and  C6_6
REMARK    2  A    between atoms: O3_3  and  C17_17
REMARK    3  A    between atoms: O4_4  and  C18_18
REMARK    4  A    between atoms: O5_5  and  C21_21
REMARK                            x       y       z     vdW  Elec       q    Type
REMARK                         _______ _______ _______ _____ _____    ______ ____
ROOT
ATOM      1  O2  UNK B   0      38.659  19.261 202.295  0.00  0.00    +0.000 OA
ATOM      2  C6  UNK B   0      40.822  18.109 202.315  0.00  0.00    +0.000 C 
ATOM      3  C7  UNK B   0      40.135  16.720 202.459  0.00  0.00    +0.000 C 
ATOM      4  C8  UNK B   0      41.128  18.327 200.813  0.00  0.00    +0.000 C 
ATOM      5  C9  UNK B   0      40.657  16.017 201.226  0.00  0.00    +0.000 A 
ATOM      6  C10 UNK B   0      41.209  16.920 200.313  0.00  0.00    +0.000 A 
ATOM      7  C11 UNK B   0      39.953  19.219 202.895  0.00  0.00    +0.000 C 
ATOM      8  C12 UNK B   0      38.628  16.832 202.515  0.00  0.00    +0.000 A 
ATOM      9  C13 UNK B   0      37.983  18.073 202.410  0.00  0.00    +0.000 A 
ATOM     10  C14 UNK B   0      40.653  14.656 200.953  0.00  0.00    +0.000 A 
ATOM     11  C15 UNK B   0      41.730  16.491 199.101  0.00  0.00    +0.000 A 
ATOM     12  C16 UNK B   0      37.836  15.684 202.680  0.00  0.00    +0.000 A 
ATOM     13  C17 UNK B   0      41.185  14.213 199.740  0.00  0.00    +0.000 A 
ATOM     14  C18 UNK B   0      41.715  15.125 198.818  0.00  0.00    +0.000 A 
ATOM     15  C19 UNK B   0      36.588  18.157 202.395  0.00  0.00    +0.000 A 
ATOM     16  C20 UNK B   0      36.442  15.771 202.688  0.00  0.00    +0.000 A 
ATOM     17  C21 UNK B   0      35.818  17.006 202.536  0.00  0.00    +0.000 A 
ENDROOT
BRANCH   2  18
ATOM     18  O1  UNK B   0      42.050  18.113 203.052  0.00  0.00    +0.000 OA
ATOM     19  H28 UNK B   0      41.850  18.339 203.976  0.00  0.00    +0.000 HD
ENDBRANCH   2  18
BRANCH  13  20
ATOM     20  O3  UNK B   0      41.180  12.878 199.461  0.00  0.00    +0.000 OA
ATOM     21  H33 UNK B   0      41.937  12.459 199.905  0.00  0.00    +0.000 HD
ENDBRANCH  13  20
BRANCH  14  22
ATOM     22  O4  UNK B   0      42.229  14.686 197.634  0.00  0.00    +0.000 OA
ATOM     23  H34 UNK B   0      41.549  14.172 197.165  0.00  0.00    +0.000 HD
ENDBRANCH  14  22
BRANCH  17  24
ATOM     24  O5  UNK B   0      34.460  17.088 202.533  0.00  0.00    +0.000 OA
ATOM     25  H35 UNK B   0      34.177  17.597 201.753  0.00  0.00    +0.000 HD
ENDBRANCH  17  24
TORSDOF 4
REMARK  Name = TETCA.pdb
REMARK  10 active torsions:
REMARK  status: ('A' for Active; 'I' for Inactive)
REMARK    1  A    between atoms: O1_1  and  C14_14
REMARK    2  A    between atoms: O2_2  and  C16_16
REMARK    3  A    between atoms: O4_4  and  C19_19
REMARK    4  A    between atoms: O5_5  and  C22_22
REMARK    5  A    between atoms: O7_7  and  C29_29
REMARK    6  A    between atoms: N9_9  and  C15_15
REMARK    7  A    between atoms: N9_9  and  C27_27
REMARK    8  A    between atoms: N9_9  and  C28_28
REMARK    9  A    between atoms: C16_16  and  C25_25
REMARK   10  A    between atoms: C23_23  and  C30_30
REMARK                            x       y       z     vdW  Elec       q    Type
REMARK                         _______ _______ _______ _____ _____    ______ ____
ROOT
ATOM      1  O3  UNK T   1      40.642  19.638 193.888  0.00  0.00    +0.000 OA
ATOM      2  O6  UNK T   1      44.472  19.561 199.179  0.00  0.00    +0.000 OA
ATOM      3  C11 UNK T   1      41.770  20.795 197.129  0.00  0.00    +0.000 C 
ATOM      4  C12 UNK T   1      39.447  19.739 197.164  0.00  0.00    +0.000 C 
ATOM      5  C13 UNK T   1      40.718  20.025 197.984  0.00  0.00    +0.000 C 
ATOM      6  C14 UNK T   1      42.114  20.097 195.786  0.00  0.00    +0.000 C 
ATOM      7  C15 UNK T   1      43.033  21.039 197.973  0.00  0.00    +0.000 C 
ATOM      8  C16 UNK T   1      38.246  19.124 197.941  0.00  0.00    +0.000 C 
ATOM      9  C17 UNK T   1      39.876  18.897 196.002  0.00  0.00    +0.000 C 
ATOM     10  C18 UNK T   1      40.846  19.566 195.096  0.00  0.00    +0.000 C 
ATOM     11  C19 UNK T   1      43.109  18.959 195.931  0.00  0.00    +0.000 C 
ATOM     12  C20 UNK T   1      38.260  17.596 197.958  0.00  0.00    +0.000 A 
ATOM     13  C21 UNK T   1      43.823  19.758 198.150  0.00  0.00    +0.000 C 
ATOM     14  C22 UNK T   1      39.589  17.599 195.837  0.00  0.00    +0.000 C 
ATOM     15  C23 UNK T   1      43.861  18.758 197.033  0.00  0.00    +0.000 C 
ATOM     16  C24 UNK T   1      38.875  16.872 196.911  0.00  0.00    +0.000 A 
ATOM     17  C25 UNK T   1      36.922  19.573 197.292  0.00  0.00    +0.000 C 
ATOM     18  C26 UNK T   1      37.593  16.898 198.984  0.00  0.00    +0.000 A 
ATOM     19  C29 UNK T   1      38.839  15.467 196.953  0.00  0.00    +0.000 A 
ATOM     20  C31 UNK T   1      37.559  15.506 198.998  0.00  0.00    +0.000 A 
ATOM     21  C32 UNK T   1      38.185  14.791 197.986  0.00  0.00    +0.000 A 
ENDROOT
BRANCH  15  24
ATOM     22  O8  UNK T   1      44.333  16.449 196.923  0.00  0.00    +0.000 OA
ATOM     23  N10 UNK T   1      46.020  17.901 197.538  0.00  0.00    +0.000 N 
ATOM     24  C30 UNK T   1      44.742  17.582 197.153  0.00  0.00    +0.000 C 
ATOM     25  H54 UNK T   1      46.746  17.203 197.673  0.00  0.00    +0.000 HD
ATOM     26  H55 UNK T   1      46.285  18.865 197.711  0.00  0.00    +0.000 HD
ENDBRANCH  15  24
BRANCH   7  27
ATOM     27  N9  UNK T   1      43.945  22.008 197.372  0.00  0.00    +0.000 NA
ATOM     28  C27 UNK T   1      43.312  23.323 197.293  0.00  0.00    +0.000 C 
ATOM     29  C28 UNK T   1      45.187  22.082 198.140  0.00  0.00    +0.000 C 
ENDBRANCH   7  27
BRANCH   6  30
ATOM     30  O1  UNK T   1      42.690  21.038 194.880  0.00  0.00    +0.000 OA
ATOM     31  H41 UNK T   1      43.074  20.563 194.124  0.00  0.00    +0.000 HD
ENDBRANCH   6  30
BRANCH   8  32
ATOM     32  O2  UNK T   1      38.240  19.661 199.269  0.00  0.00    +0.000 OA
ATOM     33  H42 UNK T   1      37.575  19.177 199.787  0.00  0.00    +0.000 HD
ENDBRANCH   8  32
BRANCH  11  34
ATOM     34  O4  UNK T   1      43.174  18.155 194.803  0.00  0.00    +0.000 OA
ATOM     35  H50 UNK T   1      42.453  18.384 194.194  0.00  0.00    +0.000 HD
ENDBRANCH  11  34
BRANCH  14  36
ATOM     36  O5  UNK T   1      40.043  16.895 194.739  0.00  0.00    +0.000 OA
ATOM     37  H51 UNK T   1      39.770  17.341 193.922  0.00  0.00    +0.000 HD
ENDBRANCH  14  36
BRANCH  19  38
ATOM     38  O7  UNK T   1      39.405  14.678 195.990  0.00  0.00    +0.000 OA
ATOM     39  H56 UNK T   1      40.181  15.123 195.612  0.00  0.00    +0.000 HD
ENDBRANCH  19  38
TORSDOF 7
ENDMDL
