MODEL 1
REMARK VINA RESULT:    -2.954      0.000      0.000
REMARK INTER + INTRA:          -9.659
REMARK INTER:                  -5.975
REMARK INTRA:                  -3.684
REMARK UNBOUND:                -3.684
REMARK  Name = Acarbose.pdb
REMARK  23 active torsions:
REMARK  status: ('A' for Active; 'I' for Inactive)
REMARK    1  A    between atoms: O1_1  and  C22_22
REMARK    2  A    between atoms: O1_1  and  C25_25
REMARK    3  A    between atoms: O4_4  and  C30_30
REMARK    4  A    between atoms: O4_4  and  C32_32
REMARK    5  A    between atoms: O5_5  and  C21_21
REMARK    6  A    between atoms: O6_6  and  C23_23
REMARK    7  A    between atoms: O7_7  and  C26_26
REMARK    8  A    between atoms: O9_9  and  C29_29
REMARK    9  A    between atoms: O10_10  and  C31_31
REMARK   10  A    between atoms: O11_11  and  C33_33
REMARK   11  A    between atoms: O12_12  and  C34_34
REMARK   12  A    between atoms: O13_13  and  C38_38
REMARK   13  A    between atoms: O14_14  and  C39_39
REMARK   14  A    between atoms: O15_15  and  C40_40
REMARK   15  A    between atoms: O16_16  and  C42_42
REMARK   16  A    between atoms: O17_17  and  C43_43
REMARK   17  A    between atoms: O18_18  and  C44_44
REMARK   18  A    between atoms: N19_19  and  C20_20
REMARK   19  A    between atoms: N19_19  and  C28_28
REMARK   20  A    between atoms: C24_24  and  C35_35
REMARK   21  A    between atoms: C27_27  and  C39_39
REMARK   22  A    between atoms: C36_36  and  C43_43
REMARK   23  A    between atoms: C41_41  and  C44_44
REMARK                            x       y       z     vdW  Elec       q    Type
REMARK                         _______ _______ _______ _____ _____    ______ ____
ROOT
ATOM      1  O1  UNK     0      37.151  20.075 197.715  0.00  0.00    +0.000 OA
ENDROOT
BRANCH   1   7
ATOM      2  O2  UNK     0      37.430  18.183 199.066  0.00  0.00    +0.000 OA
ATOM      3  C20 UNK     0      39.072  16.406 198.574  0.00  0.00    +0.000 C 
ATOM      4  C21 UNK     0      39.708  17.326 197.513  0.00  0.00    +0.000 C 
ATOM      5  C23 UNK     0      38.749  18.419 197.035  0.00  0.00    +0.000 C 
ATOM      6  C24 UNK     0      38.286  17.190 199.647  0.00  0.00    +0.000 C 
ATOM      7  C25 UNK     0      38.087  19.124 198.220  0.00  0.00    +0.000 C 
ATOM      8  C35 UNK     0      39.177  17.803 200.729  0.00  0.00    +0.000 C 
BRANCH   4   9
ATOM      9  O5  UNK     0      40.870  17.954 198.054  0.00  0.00    +0.000 OA
ATOM     10  H70 UNK     0      40.644  18.272 198.945  0.00  0.00    +0.000 HD
ENDBRANCH   4   9
BRANCH   5  11
ATOM     11  O6  UNK     0      37.731  17.846 196.215  0.00  0.00    +0.000 OA
ATOM     12  H72 UNK     0      37.251  17.195 196.756  0.00  0.00    +0.000 HD
ENDBRANCH   5  11
BRANCH   3  13
ATOM     13  N19 UNK     0      38.154  15.468 197.914  0.00  0.00    +0.000 NA
ATOM     14  H55 UNK     0      38.591  14.551 197.833  0.00  0.00    +0.000 HD
BRANCH  13  15
ATOM     15  C28 UNK     0      36.894  15.372 198.657  0.00  0.00    +0.000 C 
ATOM     16  C31 UNK     0      36.857  14.086 199.511  0.00  0.00    +0.000 C 
ATOM     17  C33 UNK     0      35.453  13.835 200.078  0.00  0.00    +0.000 C 
ATOM     18  C37 UNK     0      35.705  15.506 197.741  0.00  0.00    +0.000 C 
ATOM     19  C38 UNK     0      34.380  13.774 198.975  0.00  0.00    +0.000 C 
ATOM     20  C41 UNK     0      34.576  14.785 197.866  0.00  0.00    +0.000 C 
BRANCH  16  21
ATOM     21  O10 UNK     0      37.277  12.948 198.760  0.00  0.00    +0.000 OA
ATOM     22  H77 UNK     0      38.149  12.681 199.094  0.00  0.00    +0.000 HD
ENDBRANCH  16  21
BRANCH  17  23
ATOM     23  O11 UNK     0      35.108  14.881 200.984  0.00  0.00    +0.000 OA
ATOM     24  H80 UNK     0      35.557  15.690 200.685  0.00  0.00    +0.000 HD
ENDBRANCH  17  23
BRANCH  19  25
ATOM     25  O13 UNK     0      34.376  12.476 198.381  0.00  0.00    +0.000 OA
ATOM     26  H82 UNK     0      34.393  11.824 199.102  0.00  0.00    +0.000 HD
ENDBRANCH  19  25
BRANCH  20  27
ATOM     27  C44 UNK     0      33.428  14.959 196.915  0.00  0.00    +0.000 C 
BRANCH  27  28
ATOM     28  O18 UNK     0      33.602  16.151 196.173  0.00  0.00    +0.000 OA
ATOM     29  H87 UNK     0      34.208  15.949 195.441  0.00  0.00    +0.000 HD
ENDBRANCH  27  28
ENDBRANCH  20  27
ENDBRANCH  13  15
ENDBRANCH   3  13
ENDBRANCH   1   7
BRANCH   1  31
ATOM     30  O3  UNK     0      34.497  19.193 196.680  0.00  0.00    +0.000 OA
ATOM     31  C22 UNK     0      35.936  20.063 198.473  0.00  0.00    +0.000 C 
ATOM     32  C26 UNK     0      35.281  21.441 198.319  0.00  0.00    +0.000 C 
ATOM     33  C27 UNK     0      35.060  18.906 197.966  0.00  0.00    +0.000 C 
ATOM     34  C29 UNK     0      34.613  21.605 196.951  0.00  0.00    +0.000 C 
ATOM     35  C30 UNK     0      33.737  20.397 196.613  0.00  0.00    +0.000 C 
BRANCH  32  36
ATOM     36  O7  UNK     0      34.293  21.627 199.328  0.00  0.00    +0.000 OA
ATOM     37  H73 UNK     0      34.742  21.586 200.189  0.00  0.00    +0.000 HD
ENDBRANCH  32  36
BRANCH  34  38
ATOM     38  O9  UNK     0      35.617  21.764 195.947  0.00  0.00    +0.000 OA
ATOM     39  H74 UNK     0      35.619  20.958 195.404  0.00  0.00    +0.000 HD
ENDBRANCH  34  38
BRANCH  35  40
ATOM     40  O4  UNK     0      33.206  20.579 195.302  0.00  0.00    +0.000 OA
BRANCH  40  42
ATOM     41  O8  UNK     0      33.760  18.510 192.302  0.00  0.00    +0.000 OA
ATOM     42  C32 UNK     0      33.291  19.378 194.537  0.00  0.00    +0.000 C 
ATOM     43  C34 UNK     0      31.900  18.742 194.498  0.00  0.00    +0.000 C 
ATOM     44  C36 UNK     0      33.802  19.682 193.123  0.00  0.00    +0.000 C 
ATOM     45  C40 UNK     0      31.871  17.575 193.513  0.00  0.00    +0.000 C 
ATOM     46  C42 UNK     0      32.445  17.971 192.151  0.00  0.00    +0.000 C 
BRANCH  43  47
ATOM     47  O12 UNK     0      31.593  18.255 195.807  0.00  0.00    +0.000 OA
ATOM     48  H81 UNK     0      32.251  17.580 196.043  0.00  0.00    +0.000 HD
ENDBRANCH  43  47
BRANCH  45  49
ATOM     49  O15 UNK     0      30.533  17.113 193.368  0.00  0.00    +0.000 OA
ATOM     50  H84 UNK     0      29.948  17.889 193.417  0.00  0.00    +0.000 HD
ENDBRANCH  45  49
BRANCH  46  51
ATOM     51  O16 UNK     0      31.582  18.845 191.426  0.00  0.00    +0.000 OA
ATOM     52  H85 UNK     0      30.849  19.081 192.018  0.00  0.00    +0.000 HD
ENDBRANCH  46  51
BRANCH  44  53
ATOM     53  C43 UNK     0      35.248  20.172 193.128  0.00  0.00    +0.000 C 
BRANCH  53  54
ATOM     54  O17 UNK     0      35.956  19.472 194.133  0.00  0.00    +0.000 OA
ATOM     55  H86 UNK     0      36.885  19.755 194.080  0.00  0.00    +0.000 HD
ENDBRANCH  53  54
ENDBRANCH  44  53
ENDBRANCH  40  42
ENDBRANCH  35  40
BRANCH  33  56
ATOM     56  C39 UNK     0      33.982  18.471 198.957  0.00  0.00    +0.000 C 
BRANCH  56  57
ATOM     57  O14 UNK     0      34.606  17.801 200.037  0.00  0.00    +0.000 OA
ATOM     58  H83 UNK     0      34.318  18.242 200.853  0.00  0.00    +0.000 HD
ENDBRANCH  56  57
ENDBRANCH  33  56
ENDBRANCH   1  31
TORSDOF 22
REMARK  Name = HEMCA.pdb
REMARK  4 active torsions:
REMARK  status: ('A' for Active; 'I' for Inactive)
REMARK    1  A    between atoms: C5_5  and  O19_19
REMARK    2  A    between atoms: C6_6  and  O18_18
REMARK    3  A    between atoms: C7_7  and  O20_20
REMARK    4  A    between atoms: C17_17  and  O21_21
REMARK                            x       y       z     vdW  Elec       q    Type
REMARK                         _______ _______ _______ _____ _____    ______ ____
ROOT
ATOM      1  C1  UNK H   1      38.387  15.692 193.779  0.00  0.00    +0.000 A 
ATOM      2  C2  UNK H   1      39.396  15.171 194.476  0.00  0.00    +0.000 A 
ATOM      3  C3  UNK H   1      38.576  16.960 193.047  0.00  0.00    +0.000 A 
ATOM      4  C4  UNK H   1      40.685  15.863 194.528  0.00  0.00    +0.000 A 
ATOM      5  C5  UNK H   1      39.747  17.590 193.109  0.00  0.00    +0.000 A 
ATOM      6  C6  UNK H   1      40.849  17.018 193.885  0.00  0.00    +0.000 A 
ATOM      7  C7  UNK H   1      35.959  15.864 193.099  0.00  0.00    +0.000 C 
ATOM      8  C8  UNK H   1      37.049  15.094 193.721  0.00  0.00    +0.000 C 
ATOM      9  C9  UNK H   1      36.410  16.712 191.911  0.00  0.00    +0.000 C 
ATOM     10  O10 UNK H   1      37.548  17.490 192.268  0.00  0.00    +0.000 OA
ATOM     11  C11 UNK H   1      34.803  14.839 192.865  0.00  0.00    +0.000 C 
ATOM     12  C12 UNK H   1      35.201  13.830 193.905  0.00  0.00    +0.000 C 
ATOM     13  C13 UNK H   1      36.569  13.975 194.264  0.00  0.00    +0.000 C 
ATOM     14  C14 UNK H   1      34.455  12.824 194.345  0.00  0.00    +0.000 C 
ATOM     15  C15 UNK H   1      35.080  11.857 195.260  0.00  0.00    +0.000 C 
ATOM     16  C16 UNK H   1      37.246  12.979 195.093  0.00  0.00    +0.000 C 
ATOM     17  C17 UNK H   1      36.526  11.966 195.579  0.00  0.00    +0.000 C 
ATOM     18  O22 UNK H   1      34.416  10.921 195.718  0.00  0.00    +0.000 OA
ENDROOT
BRANCH   6  19
ATOM     19  O18 UNK H   1      42.074  17.674 193.938  0.00  0.00    +0.000 OA
ATOM     20  H9  UNK H   1      41.993  18.518 194.559  0.00  0.00    +0.000 HD
ENDBRANCH   6  19
BRANCH   5  21
ATOM     21  O19 UNK H   1      39.931  18.780 192.415  0.00  0.00    +0.000 OA
ATOM     22  H10 UNK H   1      40.394  18.581 191.494  0.00  0.00    +0.000 HD
ENDBRANCH   5  21
BRANCH   7  23
ATOM     23  O20 UNK H   1      35.548  16.743 194.148  0.00  0.00    +0.000 OA
ATOM     24  H11 UNK H   1      35.825  17.727 193.909  0.00  0.00    +0.000 HD
ENDBRANCH   7  23
BRANCH  17  25
ATOM     25  O21 UNK H   1      37.133  11.009 196.385  0.00  0.00    +0.000 OA
ATOM     26  H12 UNK H   1      38.076  11.356 196.691  0.00  0.00    +0.000 HD
ENDBRANCH  17  25
TORSDOF 4
ENDMDL
MODEL 2
REMARK VINA RESULT:    -2.939      1.785      6.176
REMARK INTER + INTRA:          -9.629
REMARK INTER:                  -5.943
REMARK INTRA:                  -3.686
REMARK UNBOUND:                -3.684
REMARK  Name = Acarbose.pdb
REMARK  23 active torsions:
REMARK  status: ('A' for Active; 'I' for Inactive)
REMARK    1  A    between atoms: O1_1  and  C22_22
REMARK    2  A    between atoms: O1_1  and  C25_25
REMARK    3  A    between atoms: O4_4  and  C30_30
REMARK    4  A    between atoms: O4_4  and  C32_32
REMARK    5  A    between atoms: O5_5  and  C21_21
REMARK    6  A    between atoms: O6_6  and  C23_23
REMARK    7  A    between atoms: O7_7  and  C26_26
REMARK    8  A    between atoms: O9_9  and  C29_29
REMARK    9  A    between atoms: O10_10  and  C31_31
REMARK   10  A    between atoms: O11_11  and  C33_33
REMARK   11  A    between atoms: O12_12  and  C34_34
REMARK   12  A    between atoms: O13_13  and  C38_38
REMARK   13  A    between atoms: O14_14  and  C39_39
REMARK   14  A    between atoms: O15_15  and  C40_40
REMARK   15  A    between atoms: O16_16  and  C42_42
REMARK   16  A    between atoms: O17_17  and  C43_43
REMARK   17  A    between atoms: O18_18  and  C44_44
REMARK   18  A    between atoms: N19_19  and  C20_20
REMARK   19  A    between atoms: N19_19  and  C28_28
REMARK   20  A    between atoms: C24_24  and  C35_35
REMARK   21  A    between atoms: C27_27  and  C39_39
REMARK   22  A    between atoms: C36_36  and  C43_43
REMARK   23  A    between atoms: C41_41  and  C44_44
REMARK                            x       y       z     vdW  Elec       q    Type
REMARK                         _______ _______ _______ _____ _____    ______ ____
ROOT
ATOM      1  O1  UNK     0      39.113  15.290 195.031  0.00  0.00    +0.000 OA
ENDROOT
BRANCH   1   7
ATOM      2  O2  UNK     0      39.751  16.218 197.084  0.00  0.00    +0.000 OA
ATOM      3  C20 UNK     0      38.937  15.372 199.256  0.00  0.00    +0.000 C 
ATOM      4  C21 UNK     0      38.374  14.134 198.531  0.00  0.00    +0.000 C 
ATOM      5  C23 UNK     0      38.160  14.377 197.035  0.00  0.00    +0.000 C 
ATOM      6  C24 UNK     0      40.078  16.053 198.470  0.00  0.00    +0.000 C 
ATOM      7  C25 UNK     0      39.397  15.016 196.401  0.00  0.00    +0.000 C 
ATOM      8  C35 UNK     0      41.431  15.357 198.633  0.00  0.00    +0.000 C 
BRANCH   4   9
ATOM      9  O5  UNK     0      39.273  13.036 198.683  0.00  0.00    +0.000 OA
ATOM     10  H70 UNK     0      39.885  13.255 199.406  0.00  0.00    +0.000 HD
ENDBRANCH   4   9
BRANCH   5  11
ATOM     11  O6  UNK     0      37.044  15.245 196.839  0.00  0.00    +0.000 OA
ATOM     12  H72 UNK     0      36.246  14.763 197.117  0.00  0.00    +0.000 HD
ENDBRANCH   5  11
BRANCH   3  13
ATOM     13  N19 UNK     0      37.858  16.350 199.455  0.00  0.00    +0.000 NA
ATOM     14  H55 UNK     0      37.552  16.338 200.426  0.00  0.00    +0.000 HD
BRANCH  13  15
ATOM     15  C28 UNK     0      38.303  17.693 199.071  0.00  0.00    +0.000 C 
ATOM     16  C31 UNK     0      38.685  18.520 200.317  0.00  0.00    +0.000 C 
ATOM     17  C33 UNK     0      38.891  19.999 199.961  0.00  0.00    +0.000 C 
ATOM     18  C37 UNK     0      37.286  18.378 198.195  0.00  0.00    +0.000 C 
ATOM     19  C38 UNK     0      37.658  20.612 199.270  0.00  0.00    +0.000 C 
ATOM     20  C41 UNK     0      36.979  19.685 198.285  0.00  0.00    +0.000 C 
BRANCH  16  21
ATOM     21  O10 UNK     0      37.695  18.412 201.340  0.00  0.00    +0.000 OA
ATOM     22  H77 UNK     0      37.129  19.199 201.284  0.00  0.00    +0.000 HD
ENDBRANCH  16  21
BRANCH  17  23
ATOM     23  O11 UNK     0      40.009  20.129 199.084  0.00  0.00    +0.000 OA
ATOM     24  H80 UNK     0      40.814  20.124 199.630  0.00  0.00    +0.000 HD
ENDBRANCH  17  23
BRANCH  19  25
ATOM     25  O13 UNK     0      36.691  20.980 200.253  0.00  0.00    +0.000 OA
ATOM     26  H82 UNK     0      36.833  21.918 200.467  0.00  0.00    +0.000 HD
ENDBRANCH  19  25
BRANCH  20  27
ATOM     27  C44 UNK     0      35.949  20.309 197.387  0.00  0.00    +0.000 C 
BRANCH  27  28
ATOM     28  O18 UNK     0      35.747  19.488 196.254  0.00  0.00    +0.000 OA
ATOM     29  H87 UNK     0      34.894  19.036 196.375  0.00  0.00    +0.000 HD
ENDBRANCH  27  28
ENDBRANCH  20  27
ENDBRANCH  13  15
ENDBRANCH   3  13
ENDBRANCH   1   7
BRANCH   1  31
ATOM     30  O3  UNK     0      37.420  17.617 194.249  0.00  0.00    +0.000 OA
ATOM     31  C22 UNK     0      39.612  16.574 194.641  0.00  0.00    +0.000 C 
ATOM     32  C26 UNK     0      39.856  16.537 193.127  0.00  0.00    +0.000 C 
ATOM     33  C27 UNK     0      38.592  17.641 195.074  0.00  0.00    +0.000 C 
ATOM     34  C29 UNK     0      38.548  16.627 192.337  0.00  0.00    +0.000 C 
ATOM     35  C30 UNK     0      37.666  17.767 192.853  0.00  0.00    +0.000 C 
BRANCH  32  36
ATOM     36  O7  UNK     0      40.692  17.623 192.741  0.00  0.00    +0.000 OA
ATOM     37  H73 UNK     0      40.615  17.725 191.778  0.00  0.00    +0.000 HD
ENDBRANCH  32  36
BRANCH  34  38
ATOM     38  O9  UNK     0      37.841  15.390 192.441  0.00  0.00    +0.000 OA
ATOM     39  H74 UNK     0      36.912  15.599 192.637  0.00  0.00    +0.000 HD
ENDBRANCH  34  38
BRANCH  35  40
ATOM     40  O4  UNK     0      36.438  17.750 192.127  0.00  0.00    +0.000 OA
BRANCH  40  42
ATOM     41  O8  UNK     0      33.034  17.151 193.409  0.00  0.00    +0.000 OA
ATOM     42  C32 UNK     0      35.320  17.912 192.997  0.00  0.00    +0.000 C 
ATOM     43  C34 UNK     0      34.821  19.353 192.863  0.00  0.00    +0.000 C 
ATOM     44  C36 UNK     0      34.216  16.908 192.638  0.00  0.00    +0.000 C 
ATOM     45  C40 UNK     0      33.493  19.531 193.596  0.00  0.00    +0.000 C 
ATOM     46  C42 UNK     0      32.481  18.453 193.203  0.00  0.00    +0.000 C 
BRANCH  43  47
ATOM     47  O12 UNK     0      35.797  20.220 193.446  0.00  0.00    +0.000 OA
ATOM     48  H81 UNK     0      36.677  19.926 193.158  0.00  0.00    +0.000 HD
ENDBRANCH  43  47
BRANCH  45  49
ATOM     49  O15 UNK     0      32.969  20.824 193.314  0.00  0.00    +0.000 OA
ATOM     50  H84 UNK     0      32.794  21.261 194.166  0.00  0.00    +0.000 HD
ENDBRANCH  45  49
BRANCH  46  51
ATOM     51  O16 UNK     0      31.984  18.624 191.877  0.00  0.00    +0.000 OA
ATOM     52  H85 UNK     0      32.743  18.852 191.314  0.00  0.00    +0.000 HD
ENDBRANCH  46  51
BRANCH  44  53
ATOM     53  C43 UNK     0      34.640  15.467 192.913  0.00  0.00    +0.000 C 
BRANCH  53  54
ATOM     54  O17 UNK     0      35.420  15.446 194.094  0.00  0.00    +0.000 OA
ATOM     55  H86 UNK     0      36.214  14.918 193.904  0.00  0.00    +0.000 HD
ENDBRANCH  53  54
ENDBRANCH  44  53
ENDBRANCH  40  42
ENDBRANCH  35  40
BRANCH  33  56
ATOM     56  C39 UNK     0      39.177  19.049 195.163  0.00  0.00    +0.000 C 
BRANCH  56  57
ATOM     57  O14 UNK     0      40.094  19.089 196.241  0.00  0.00    +0.000 OA
ATOM     58  H83 UNK     0      40.341  20.019 196.373  0.00  0.00    +0.000 HD
ENDBRANCH  56  57
ENDBRANCH  33  56
ENDBRANCH   1  31
TORSDOF 22
REMARK  Name = HEMCA.pdb
REMARK  4 active torsions:
REMARK  status: ('A' for Active; 'I' for Inactive)
REMARK    1  A    between atoms: C5_5  and  O19_19
REMARK    2  A    between atoms: C6_6  and  O18_18
REMARK    3  A    between atoms: C7_7  and  O20_20
REMARK    4  A    between atoms: C17_17  and  O21_21
REMARK                            x       y       z     vdW  Elec       q    Type
REMARK                         _______ _______ _______ _____ _____    ______ ____
ROOT
ATOM      1  C1  UNK H   1      34.133  14.659 198.271  0.00  0.00    +0.000 A 
ATOM      2  C2  UNK H   1      34.759  14.138 199.325  0.00  0.00    +0.000 A 
ATOM      3  C3  UNK H   1      33.891  13.827 197.075  0.00  0.00    +0.000 A 
ATOM      4  C4  UNK H   1      35.219  12.749 199.294  0.00  0.00    +0.000 A 
ATOM      5  C5  UNK H   1      34.323  12.568 197.048  0.00  0.00    +0.000 A 
ATOM      6  C6  UNK H   1      35.019  12.005 198.206  0.00  0.00    +0.000 A 
ATOM      7  C7  UNK H   1      33.206  16.576 196.909  0.00  0.00    +0.000 C 
ATOM      8  C8  UNK H   1      33.691  16.056 198.199  0.00  0.00    +0.000 C 
ATOM      9  C9  UNK H   1      32.438  15.544 196.084  0.00  0.00    +0.000 C 
ATOM     10  O10 UNK H   1      33.190  14.339 195.984  0.00  0.00    +0.000 OA
ATOM     11  C11 UNK H   1      32.486  17.921 197.246  0.00  0.00    +0.000 C 
ATOM     12  C12 UNK H   1      33.184  18.216 198.543  0.00  0.00    +0.000 C 
ATOM     13  C13 UNK H   1      33.764  17.041 199.094  0.00  0.00    +0.000 C 
ATOM     14  C14 UNK H   1      33.159  19.369 199.200  0.00  0.00    +0.000 C 
ATOM     15  C15 UNK H   1      33.787  19.414 200.530  0.00  0.00    +0.000 C 
ATOM     16  C16 UNK H   1      34.310  17.027 200.449  0.00  0.00    +0.000 C 
ATOM     17  C17 UNK H   1      34.329  18.171 201.136  0.00  0.00    +0.000 C 
ATOM     18  O22 UNK H   1      33.814  20.473 201.166  0.00  0.00    +0.000 OA
ENDROOT
BRANCH   6  19
ATOM     19  O18 UNK H   1      35.459  10.686 198.177  0.00  0.00    +0.000 OA
ATOM     20  H9  UNK H   1      34.908  10.149 197.462  0.00  0.00    +0.000 HD
ENDBRANCH   6  19
BRANCH   5  21
ATOM     21  O19 UNK H   1      34.090  11.780 195.927  0.00  0.00    +0.000 OA
ATOM     22  H10 UNK H   1      34.941  11.786 195.311  0.00  0.00    +0.000 HD
ENDBRANCH   5  21
BRANCH   7  23
ATOM     23  O20 UNK H   1      34.414  16.896 196.217  0.00  0.00    +0.000 OA
ATOM     24  H11 UNK H   1      35.068  16.076 196.256  0.00  0.00    +0.000 HD
ENDBRANCH   7  23
BRANCH  17  25
ATOM     25  O21 UNK H   1      34.855  18.199 202.422  0.00  0.00    +0.000 OA
ATOM     26  H12 UNK H   1      35.820  18.613 202.396  0.00  0.00    +0.000 HD
ENDBRANCH  17  25
TORSDOF 4
ENDMDL
MODEL 3
REMARK VINA RESULT:    -2.897      4.029      9.358
REMARK INTER + INTRA:          -9.544
REMARK INTER:                  -5.969
REMARK INTRA:                  -3.575
REMARK UNBOUND:                -3.684
REMARK  Name = Acarbose.pdb
REMARK  23 active torsions:
REMARK  status: ('A' for Active; 'I' for Inactive)
REMARK    1  A    between atoms: O1_1  and  C22_22
REMARK    2  A    between atoms: O1_1  and  C25_25
REMARK    3  A    between atoms: O4_4  and  C30_30
REMARK    4  A    between atoms: O4_4  and  C32_32
REMARK    5  A    between atoms: O5_5  and  C21_21
REMARK    6  A    between atoms: O6_6  and  C23_23
REMARK    7  A    between atoms: O7_7  and  C26_26
REMARK    8  A    between atoms: O9_9  and  C29_29
REMARK    9  A    between atoms: O10_10  and  C31_31
REMARK   10  A    between atoms: O11_11  and  C33_33
REMARK   11  A    between atoms: O12_12  and  C34_34
REMARK   12  A    between atoms: O13_13  and  C38_38
REMARK   13  A    between atoms: O14_14  and  C39_39
REMARK   14  A    between atoms: O15_15  and  C40_40
REMARK   15  A    between atoms: O16_16  and  C42_42
REMARK   16  A    between atoms: O17_17  and  C43_43
REMARK   17  A    between atoms: O18_18  and  C44_44
REMARK   18  A    between atoms: N19_19  and  C20_20
REMARK   19  A    between atoms: N19_19  and  C28_28
REMARK   20  A    between atoms: C24_24  and  C35_35
REMARK   21  A    between atoms: C27_27  and  C39_39
REMARK   22  A    between atoms: C36_36  and  C43_43
REMARK   23  A    between atoms: C41_41  and  C44_44
REMARK                            x       y       z     vdW  Elec       q    Type
REMARK                         _______ _______ _______ _____ _____    ______ ____
ROOT
ATOM      1  O1  UNK     0      41.268  11.464 194.030  0.00  0.00    +0.000 OA
ENDROOT
BRANCH   1   7
ATOM      2  O2  UNK     0      38.942  11.250 194.183  0.00  0.00    +0.000 OA
ATOM      3  C20 UNK     0      37.407  13.184 194.171  0.00  0.00    +0.000 C 
ATOM      4  C21 UNK     0      38.583  14.080 193.738  0.00  0.00    +0.000 C 
ATOM      5  C23 UNK     0      39.944  13.465 194.076  0.00  0.00    +0.000 C 
ATOM      6  C24 UNK     0      37.630  11.697 193.818  0.00  0.00    +0.000 C 
ATOM      7  C25 UNK     0      40.014  12.005 193.622  0.00  0.00    +0.000 C 
ATOM      8  C35 UNK     0      37.327  11.367 192.355  0.00  0.00    +0.000 C 
BRANCH   4   9
ATOM      9  O5  UNK     0      38.529  14.300 192.329  0.00  0.00    +0.000 OA
ATOM     10  H70 UNK     0      39.289  13.842 191.931  0.00  0.00    +0.000 HD
ENDBRANCH   4   9
BRANCH   5  11
ATOM     11  O6  UNK     0      40.164  13.518 195.485  0.00  0.00    +0.000 OA
ATOM     12  H72 UNK     0      39.756  14.338 195.814  0.00  0.00    +0.000 HD
ENDBRANCH   5  11
BRANCH   3  13
ATOM     13  N19 UNK     0      37.222  13.296 195.625  0.00  0.00    +0.000 NA
ATOM     14  H55 UNK     0      36.430  13.903 195.830  0.00  0.00    +0.000 HD
BRANCH  13  15
ATOM     15  C28 UNK     0      37.025  11.972 196.223  0.00  0.00    +0.000 C 
ATOM     16  C31 UNK     0      35.522  11.679 196.420  0.00  0.00    +0.000 C 
ATOM     17  C33 UNK     0      35.308  10.428 197.284  0.00  0.00    +0.000 C 
ATOM     18  C37 UNK     0      37.829  11.816 197.487  0.00  0.00    +0.000 C 
ATOM     19  C38 UNK     0      36.017  10.531 198.648  0.00  0.00    +0.000 C 
ATOM     20  C41 UNK     0      37.381  11.182 198.587  0.00  0.00    +0.000 C 
BRANCH  16  21
ATOM     21  O10 UNK     0      34.847  12.787 197.015  0.00  0.00    +0.000 OA
ATOM     22  H77 UNK     0      33.949  12.816 196.645  0.00  0.00    +0.000 HD
ENDBRANCH  16  21
BRANCH  17  23
ATOM     23  O11 UNK     0      35.814   9.282 196.600  0.00  0.00    +0.000 OA
ATOM     24  H80 UNK     0      36.109   8.644 197.272  0.00  0.00    +0.000 HD
ENDBRANCH  17  23
BRANCH  19  25
ATOM     25  O13 UNK     0      35.214  11.293 199.548  0.00  0.00    +0.000 OA
ATOM     26  H82 UNK     0      34.966  12.117 199.095  0.00  0.00    +0.000 HD
ENDBRANCH  19  25
BRANCH  20  27
ATOM     27  C44 UNK     0      38.229  11.066 199.821  0.00  0.00    +0.000 C 
BRANCH  27  28
ATOM     28  O18 UNK     0      39.575  11.360 199.503  0.00  0.00    +0.000 OA
ATOM     29  H87 UNK     0      39.785  12.220 199.904  0.00  0.00    +0.000 HD
ENDBRANCH  27  28
ENDBRANCH  20  27
ENDBRANCH  13  15
ENDBRANCH   3  13
ENDBRANCH   1   7
BRANCH   1  31
ATOM     30  O3  UNK     0      41.689  10.700 196.882  0.00  0.00    +0.000 OA
ATOM     31  C22 UNK     0      41.119  10.141 194.556  0.00  0.00    +0.000 C 
ATOM     32  C26 UNK     0      42.468   9.428 194.406  0.00  0.00    +0.000 C 
ATOM     33  C27 UNK     0      40.641  10.251 196.014  0.00  0.00    +0.000 C 
ATOM     34  C29 UNK     0      43.483   9.901 195.450  0.00  0.00    +0.000 C 
ATOM     35  C30 UNK     0      42.873   9.906 196.854  0.00  0.00    +0.000 C 
BRANCH  32  36
ATOM     36  O7  UNK     0      42.295   8.021 194.550  0.00  0.00    +0.000 OA
ATOM     37  H73 UNK     0      42.436   7.617 193.677  0.00  0.00    +0.000 HD
ENDBRANCH  32  36
BRANCH  34  38
ATOM     38  O9  UNK     0      43.931  11.216 195.118  0.00  0.00    +0.000 OA
ATOM     39  H74 UNK     0      43.940  11.738 195.938  0.00  0.00    +0.000 HD
ENDBRANCH  34  38
BRANCH  35  40
ATOM     40  O4  UNK     0      43.841  10.424 197.764  0.00  0.00    +0.000 OA
BRANCH  40  42
ATOM     41  O8  UNK     0      43.645  13.465 199.837  0.00  0.00    +0.000 OA
ATOM     42  C32 UNK     0      43.254  11.354 198.672  0.00  0.00    +0.000 C 
ATOM     43  C34 UNK     0      43.056  10.644 200.013  0.00  0.00    +0.000 C 
ATOM     44  C36 UNK     0      44.152  12.588 198.825  0.00  0.00    +0.000 C 
ATOM     45  C40 UNK     0      42.639  11.643 201.092  0.00  0.00    +0.000 C 
ATOM     46  C42 UNK     0      43.569  12.857 201.128  0.00  0.00    +0.000 C 
BRANCH  43  47
ATOM     47  O12 UNK     0      42.022   9.669 199.855  0.00  0.00    +0.000 OA
ATOM     48  H81 UNK     0      42.018   9.099 200.643  0.00  0.00    +0.000 HD
ENDBRANCH  43  47
BRANCH  45  49
ATOM     49  O15 UNK     0      42.628  10.992 202.357  0.00  0.00    +0.000 OA
ATOM     50  H84 UNK     0      41.795  10.493 202.423  0.00  0.00    +0.000 HD
ENDBRANCH  45  49
BRANCH  46  51
ATOM     51  O16 UNK     0      44.858  12.544 201.654  0.00  0.00    +0.000 OA
ATOM     52  H85 UNK     0      45.360  12.110 200.944  0.00  0.00    +0.000 HD
ENDBRANCH  46  51
BRANCH  44  53
ATOM     53  C43 UNK     0      44.237  13.399 197.534  0.00  0.00    +0.000 C 
BRANCH  53  54
ATOM     54  O17 UNK     0      42.974  13.363 196.896  0.00  0.00    +0.000 OA
ATOM     55  H86 UNK     0      42.417  12.743 197.396  0.00  0.00    +0.000 HD
ENDBRANCH  53  54
ENDBRANCH  44  53
ENDBRANCH  40  42
ENDBRANCH  35  40
BRANCH  33  56
ATOM     56  C39 UNK     0      39.992   8.974 196.545  0.00  0.00    +0.000 C 
BRANCH  56  57
ATOM     57  O14 UNK     0      38.726   8.823 195.930  0.00  0.00    +0.000 OA
ATOM     58  H83 UNK     0      38.499   7.878 195.969  0.00  0.00    +0.000 HD
ENDBRANCH  56  57
ENDBRANCH  33  56
ENDBRANCH   1  31
TORSDOF 22
REMARK  Name = HEMCA.pdb
REMARK  4 active torsions:
REMARK  status: ('A' for Active; 'I' for Inactive)
REMARK    1  A    between atoms: C5_5  and  O19_19
REMARK    2  A    between atoms: C6_6  and  O18_18
REMARK    3  A    between atoms: C7_7  and  O20_20
REMARK    4  A    between atoms: C17_17  and  O21_21
REMARK                            x       y       z     vdW  Elec       q    Type
REMARK                         _______ _______ _______ _____ _____    ______ ____
ROOT
ATOM      1  C1  UNK H   1      39.689  16.341 197.151  0.00  0.00    +0.000 A 
ATOM      2  C2  UNK H   1      38.726  16.696 196.300  0.00  0.00    +0.000 A 
ATOM      3  C3  UNK H   1      41.103  16.579 196.800  0.00  0.00    +0.000 A 
ATOM      4  C4  UNK H   1      39.070  17.307 195.016  0.00  0.00    +0.000 A 
ATOM      5  C5  UNK H   1      41.410  17.123 195.625  0.00  0.00    +0.000 A 
ATOM      6  C6  UNK H   1      40.348  17.501 194.691  0.00  0.00    +0.000 A 
ATOM      7  C7  UNK H   1      40.578  15.137 199.187  0.00  0.00    +0.000 C 
ATOM      8  C8  UNK H   1      39.433  15.673 198.432  0.00  0.00    +0.000 C 
ATOM      9  C9  UNK H   1      41.841  15.988 199.069  0.00  0.00    +0.000 C 
ATOM     10  O10 UNK H   1      42.121  16.264 197.701  0.00  0.00    +0.000 OA
ATOM     11  C11 UNK H   1      40.029  14.841 200.620  0.00  0.00    +0.000 C 
ATOM     12  C12 UNK H   1      38.576  14.705 200.268  0.00  0.00    +0.000 C 
ATOM     13  C13 UNK H   1      38.289  15.325 199.021  0.00  0.00    +0.000 C 
ATOM     14  C14 UNK H   1      37.623  14.216 201.052  0.00  0.00    +0.000 C 
ATOM     15  C15 UNK H   1      36.233  14.303 200.577  0.00  0.00    +0.000 C 
ATOM     16  C16 UNK H   1      36.914  15.514 198.565  0.00  0.00    +0.000 C 
ATOM     17  C17 UNK H   1      35.926  15.014 199.311  0.00  0.00    +0.000 C 
ATOM     18  O22 UNK H   1      35.316  13.834 201.260  0.00  0.00    +0.000 OA
ENDROOT
BRANCH   6  19
ATOM     19  O18 UNK H   1      40.672  18.079 193.468  0.00  0.00    +0.000 OA
ATOM     20  H9  UNK H   1      40.611  17.354 192.711  0.00  0.00    +0.000 HD
ENDBRANCH   6  19
BRANCH   5  21
ATOM     21  O19 UNK H   1      42.740  17.355 195.295  0.00  0.00    +0.000 OA
ATOM     22  H10 UNK H   1      42.790  18.037 194.498  0.00  0.00    +0.000 HD
ENDBRANCH   5  21
BRANCH   7  23
ATOM     23  O20 UNK H   1      40.821  13.881 198.552  0.00  0.00    +0.000 OA
ATOM     24  H11 UNK H   1      39.948  13.299 198.578  0.00  0.00    +0.000 HD
ENDBRANCH   7  23
BRANCH  17  25
ATOM     25  O21 UNK H   1      34.606  15.160 198.900  0.00  0.00    +0.000 OA
ATOM     26  H12 UNK H   1      34.564  15.821 198.085  0.00  0.00    +0.000 HD
ENDBRANCH  17  25
TORSDOF 4
ENDMDL
MODEL 4
REMARK VINA RESULT:    -2.878      2.692      7.151
REMARK INTER + INTRA:          -9.506
REMARK INTER:                  -6.544
REMARK INTRA:                  -2.961
REMARK UNBOUND:                -3.684
REMARK  Name = Acarbose.pdb
REMARK  23 active torsions:
REMARK  status: ('A' for Active; 'I' for Inactive)
REMARK    1  A    between atoms: O1_1  and  C22_22
REMARK    2  A    between atoms: O1_1  and  C25_25
REMARK    3  A    between atoms: O4_4  and  C30_30
REMARK    4  A    between atoms: O4_4  and  C32_32
REMARK    5  A    between atoms: O5_5  and  C21_21
REMARK    6  A    between atoms: O6_6  and  C23_23
REMARK    7  A    between atoms: O7_7  and  C26_26
REMARK    8  A    between atoms: O9_9  and  C29_29
REMARK    9  A    between atoms: O10_10  and  C31_31
REMARK   10  A    between atoms: O11_11  and  C33_33
REMARK   11  A    between atoms: O12_12  and  C34_34
REMARK   12  A    between atoms: O13_13  and  C38_38
REMARK   13  A    between atoms: O14_14  and  C39_39
REMARK   14  A    between atoms: O15_15  and  C40_40
REMARK   15  A    between atoms: O16_16  and  C42_42
REMARK   16  A    between atoms: O17_17  and  C43_43
REMARK   17  A    between atoms: O18_18  and  C44_44
REMARK   18  A    between atoms: N19_19  and  C20_20
REMARK   19  A    between atoms: N19_19  and  C28_28
REMARK   20  A    between atoms: C24_24  and  C35_35
REMARK   21  A    between atoms: C27_27  and  C39_39
REMARK   22  A    between atoms: C36_36  and  C43_43
REMARK   23  A    between atoms: C41_41  and  C44_44
REMARK                            x       y       z     vdW  Elec       q    Type
REMARK                         _______ _______ _______ _____ _____    ______ ____
ROOT
ATOM      1  O1  UNK     0      39.381  15.228 198.146  0.00  0.00    +0.000 OA
ENDROOT
BRANCH   1   7
ATOM      2  O2  UNK     0      38.246  15.364 196.102  0.00  0.00    +0.000 OA
ATOM      3  C20 UNK     0      39.151  14.448 193.995  0.00  0.00    +0.000 C 
ATOM      4  C21 UNK     0      40.234  13.716 194.811  0.00  0.00    +0.000 C 
ATOM      5  C23 UNK     0      40.454  14.343 196.190  0.00  0.00    +0.000 C 
ATOM      6  C24 UNK     0      37.901  14.788 194.836  0.00  0.00    +0.000 C 
ATOM      7  C25 UNK     0      39.121  14.574 196.905  0.00  0.00    +0.000 C 
ATOM      8  C35 UNK     0      36.948  13.604 195.016  0.00  0.00    +0.000 C 
BRANCH   4   9
ATOM      9  O5  UNK     0      39.859  12.351 194.994  0.00  0.00    +0.000 OA
ATOM     10  H70 UNK     0      40.555  11.924 195.523  0.00  0.00    +0.000 HD
ENDBRANCH   4   9
BRANCH   5  11
ATOM     11  O6  UNK     0      41.124  15.596 196.052  0.00  0.00    +0.000 OA
ATOM     12  H72 UNK     0      42.019  15.413 195.719  0.00  0.00    +0.000 HD
ENDBRANCH   5  11
BRANCH   3  13
ATOM     13  N19 UNK     0      39.709  15.699 193.462  0.00  0.00    +0.000 NA
ATOM     14  H55 UNK     0      40.014  16.298 194.227  0.00  0.00    +0.000 HD
BRANCH  13  15
ATOM     15  C28 UNK     0      40.824  15.419 192.552  0.00  0.00    +0.000 C 
ATOM     16  C31 UNK     0      41.799  16.615 192.496  0.00  0.00    +0.000 C 
ATOM     17  C33 UNK     0      42.815  16.451 191.356  0.00  0.00    +0.000 C 
ATOM     18  C37 UNK     0      40.331  14.994 191.193  0.00  0.00    +0.000 C 
ATOM     19  C38 UNK     0      42.133  16.252 189.989  0.00  0.00    +0.000 C 
ATOM     20  C41 UNK     0      40.903  15.373 190.036  0.00  0.00    +0.000 C 
BRANCH  16  21
ATOM     21  O10 UNK     0      41.102  17.850 192.336  0.00  0.00    +0.000 OA
ATOM     22  H77 UNK     0      41.751  18.520 192.063  0.00  0.00    +0.000 HD
ENDBRANCH  16  21
BRANCH  17  23
ATOM     23  O11 UNK     0      43.645  15.319 191.613  0.00  0.00    +0.000 OA
ATOM     24  H80 UNK     0      44.569  15.619 191.585  0.00  0.00    +0.000 HD
ENDBRANCH  17  23
BRANCH  19  25
ATOM     25  O13 UNK     0      41.740  17.518 189.461  0.00  0.00    +0.000 OA
ATOM     26  H82 UNK     0      41.666  18.137 190.207  0.00  0.00    +0.000 HD
ENDBRANCH  19  25
BRANCH  20  27
ATOM     27  C44 UNK     0      40.357  14.922 188.711  0.00  0.00    +0.000 C 
BRANCH  27  28
ATOM     28  O18 UNK     0      39.834  16.033 188.009  0.00  0.00    +0.000 OA
ATOM     29  H87 UNK     0      40.273  16.060 187.142  0.00  0.00    +0.000 HD
ENDBRANCH  27  28
ENDBRANCH  20  27
ENDBRANCH  13  15
ENDBRANCH   3  13
ENDBRANCH   1   7
BRANCH   1  31
ATOM     30  O3  UNK     0      37.399  16.664 199.850  0.00  0.00    +0.000 OA
ATOM     31  C22 UNK     0      38.635  14.635 199.214  0.00  0.00    +0.000 C 
ATOM     32  C26 UNK     0      39.476  14.757 200.491  0.00  0.00    +0.000 C 
ATOM     33  C27 UNK     0      37.273  15.344 199.305  0.00  0.00    +0.000 C 
ATOM     34  C29 UNK     0      39.455  16.181 201.052  0.00  0.00    +0.000 C 
ATOM     35  C30 UNK     0      38.027  16.727 201.128  0.00  0.00    +0.000 C 
BRANCH  32  36
ATOM     36  O7  UNK     0      38.979  13.871 201.489  0.00  0.00    +0.000 OA
ATOM     37  H73 UNK     0      39.536  13.075 201.478  0.00  0.00    +0.000 HD
ENDBRANCH  32  36
BRANCH  34  38
ATOM     38  O9  UNK     0      40.250  17.032 200.225  0.00  0.00    +0.000 OA
ATOM     39  H74 UNK     0      40.921  16.477 199.792  0.00  0.00    +0.000 HD
ENDBRANCH  34  38
BRANCH  35  40
ATOM     40  O4  UNK     0      38.085  18.076 201.587  0.00  0.00    +0.000 OA
BRANCH  40  42
ATOM     41  O8  UNK     0      37.033  21.190 199.918  0.00  0.00    +0.000 OA
ATOM     42  C32 UNK     0      37.242  18.925 200.811  0.00  0.00    +0.000 C 
ATOM     43  C34 UNK     0      35.919  19.094 201.562  0.00  0.00    +0.000 C 
ATOM     44  C36 UNK     0      37.922  20.280 200.575  0.00  0.00    +0.000 C 
ATOM     45  C40 UNK     0      35.058  20.166 200.897  0.00  0.00    +0.000 C 
ATOM     46  C42 UNK     0      35.844  21.457 200.663  0.00  0.00    +0.000 C 
BRANCH  43  47
ATOM     47  O12 UNK     0      35.222  17.846 201.526  0.00  0.00    +0.000 OA
ATOM     48  H81 UNK     0      35.138  17.517 202.437  0.00  0.00    +0.000 HD
ENDBRANCH  43  47
BRANCH  45  49
ATOM     49  O15 UNK     0      33.916  20.423 201.707  0.00  0.00    +0.000 OA
ATOM     50  H84 UNK     0      33.497  21.235 201.374  0.00  0.00    +0.000 HD
ENDBRANCH  45  49
BRANCH  46  51
ATOM     51  O16 UNK     0      36.113  22.162 201.874  0.00  0.00    +0.000 OA
ATOM     52  H85 UNK     0      35.255  22.404 202.262  0.00  0.00    +0.000 HD
ENDBRANCH  46  51
BRANCH  44  53
ATOM     53  C43 UNK     0      39.163  20.153 199.694  0.00  0.00    +0.000 C 
BRANCH  53  54
ATOM     54  O17 UNK     0      38.987  19.048 198.826  0.00  0.00    +0.000 OA
ATOM     55  H86 UNK     0      38.164  18.603 199.091  0.00  0.00    +0.000 HD
ENDBRANCH  53  54
ENDBRANCH  44  53
ENDBRANCH  40  42
ENDBRANCH  35  40
BRANCH  33  56
ATOM     56  C39 UNK     0      36.209  14.538 200.048  0.00  0.00    +0.000 C 
BRANCH  56  57
ATOM     57  O14 UNK     0      35.003  15.280 200.051  0.00  0.00    +0.000 OA
ATOM     58  H83 UNK     0      34.800  15.492 200.978  0.00  0.00    +0.000 HD
ENDBRANCH  56  57
ENDBRANCH  33  56
ENDBRANCH   1  31
TORSDOF 22
REMARK  Name = HEMCA.pdb
REMARK  4 active torsions:
REMARK  status: ('A' for Active; 'I' for Inactive)
REMARK    1  A    between atoms: C5_5  and  O19_19
REMARK    2  A    between atoms: C6_6  and  O18_18
REMARK    3  A    between atoms: C7_7  and  O20_20
REMARK    4  A    between atoms: C17_17  and  O21_21
REMARK                            x       y       z     vdW  Elec       q    Type
REMARK                         _______ _______ _______ _____ _____    ______ ____
ROOT
ATOM      1  C1  UNK H   1      36.761  17.629 192.693  0.00  0.00    +0.000 A 
ATOM      2  C2  UNK H   1      35.919  16.669 192.309  0.00  0.00    +0.000 A 
ATOM      3  C3  UNK H   1      37.770  18.143 191.746  0.00  0.00    +0.000 A 
ATOM      4  C4  UNK H   1      36.004  16.117 190.956  0.00  0.00    +0.000 A 
ATOM      5  C5  UNK H   1      37.850  17.627 190.521  0.00  0.00    +0.000 A 
ATOM      6  C6  UNK H   1      36.929  16.566 190.109  0.00  0.00    +0.000 A 
ATOM      7  C7  UNK H   1      37.887  19.093 194.417  0.00  0.00    +0.000 C 
ATOM      8  C8  UNK H   1      36.780  18.196 194.045  0.00  0.00    +0.000 C 
ATOM      9  C9  UNK H   1      38.371  19.977 193.268  0.00  0.00    +0.000 C 
ATOM     10  O10 UNK H   1      38.622  19.185 192.112  0.00  0.00    +0.000 OA
ATOM     11  C11 UNK H   1      37.429  19.796 195.735  0.00  0.00    +0.000 C 
ATOM     12  C12 UNK H   1      36.431  18.770 196.188  0.00  0.00    +0.000 C 
ATOM     13  C13 UNK H   1      36.013  17.947 195.107  0.00  0.00    +0.000 C 
ATOM     14  C14 UNK H   1      35.872  18.700 197.390  0.00  0.00    +0.000 C 
ATOM     15  C15 UNK H   1      34.805  17.707 197.592  0.00  0.00    +0.000 C 
ATOM     16  C16 UNK H   1      34.893  17.019 195.247  0.00  0.00    +0.000 C 
ATOM     17  C17 UNK H   1      34.318  16.898 196.446  0.00  0.00    +0.000 C 
ATOM     18  O22 UNK H   1      34.275  17.586 198.702  0.00  0.00    +0.000 OA
ENDROOT
BRANCH   6  19
ATOM     19  O18 UNK H   1      37.010  16.038 188.826  0.00  0.00    +0.000 OA
ATOM     20  H9  UNK H   1      36.523  15.107 188.799  0.00  0.00    +0.000 HD
ENDBRANCH   6  19
BRANCH   5  21
ATOM     21  O19 UNK H   1      38.794  18.114 189.625  0.00  0.00    +0.000 OA
ATOM     22  H10 UNK H   1      39.472  17.352 189.380  0.00  0.00    +0.000 HD
ENDBRANCH   5  21
BRANCH   7  23
ATOM     23  O20 UNK H   1      38.936  18.184 194.756  0.00  0.00    +0.000 OA
ATOM     24  H11 UNK H   1      38.935  18.019 195.793  0.00  0.00    +0.000 HD
ENDBRANCH   7  23
BRANCH  17  25
ATOM     25  O21 UNK H   1      33.261  16.013 196.621  0.00  0.00    +0.000 OA
ATOM     26  H12 UNK H   1      32.509  16.474 197.190  0.00  0.00    +0.000 HD
ENDBRANCH  17  25
TORSDOF 4
ENDMDL
MODEL 5
REMARK VINA RESULT:    -2.858      4.961      8.883
REMARK INTER + INTRA:          -9.465
REMARK INTER:                  -6.794
REMARK INTRA:                  -2.671
REMARK UNBOUND:                -3.684
REMARK  Name = Acarbose.pdb
REMARK  23 active torsions:
REMARK  status: ('A' for Active; 'I' for Inactive)
REMARK    1  A    between atoms: O1_1  and  C22_22
REMARK    2  A    between atoms: O1_1  and  C25_25
REMARK    3  A    between atoms: O4_4  and  C30_30
REMARK    4  A    between atoms: O4_4  and  C32_32
REMARK    5  A    between atoms: O5_5  and  C21_21
REMARK    6  A    between atoms: O6_6  and  C23_23
REMARK    7  A    between atoms: O7_7  and  C26_26
REMARK    8  A    between atoms: O9_9  and  C29_29
REMARK    9  A    between atoms: O10_10  and  C31_31
REMARK   10  A    between atoms: O11_11  and  C33_33
REMARK   11  A    between atoms: O12_12  and  C34_34
REMARK   12  A    between atoms: O13_13  and  C38_38
REMARK   13  A    between atoms: O14_14  and  C39_39
REMARK   14  A    between atoms: O15_15  and  C40_40
REMARK   15  A    between atoms: O16_16  and  C42_42
REMARK   16  A    between atoms: O17_17  and  C43_43
REMARK   17  A    between atoms: O18_18  and  C44_44
REMARK   18  A    between atoms: N19_19  and  C20_20
REMARK   19  A    between atoms: N19_19  and  C28_28
REMARK   20  A    between atoms: C24_24  and  C35_35
REMARK   21  A    between atoms: C27_27  and  C39_39
REMARK   22  A    between atoms: C36_36  and  C43_43
REMARK   23  A    between atoms: C41_41  and  C44_44
REMARK                            x       y       z     vdW  Elec       q    Type
REMARK                         _______ _______ _______ _____ _____    ______ ____
ROOT
ATOM      1  O1  UNK     0      43.325  15.850 196.213  0.00  0.00    +0.000 OA
ENDROOT
BRANCH   1   7
ATOM      2  O2  UNK     0      42.944  13.649 195.511  0.00  0.00    +0.000 OA
ATOM      3  C20 UNK     0      43.533  12.833 193.256  0.00  0.00    +0.000 C 
ATOM      4  C21 UNK     0      44.337  14.128 193.028  0.00  0.00    +0.000 C 
ATOM      5  C23 UNK     0      43.899  15.262 193.959  0.00  0.00    +0.000 C 
ATOM      6  C24 UNK     0      43.351  12.502 194.754  0.00  0.00    +0.000 C 
ATOM      7  C25 UNK     0      43.810  14.778 195.408  0.00  0.00    +0.000 C 
ATOM      8  C35 UNK     0      44.577  11.838 195.384  0.00  0.00    +0.000 C 
BRANCH   4   9
ATOM      9  O5  UNK     0      45.725  13.878 193.248  0.00  0.00    +0.000 OA
ATOM     10  H70 UNK     0      46.156  14.737 193.404  0.00  0.00    +0.000 HD
ENDBRANCH   4   9
BRANCH   5  11
ATOM     11  O6  UNK     0      42.619  15.751 193.559  0.00  0.00    +0.000 OA
ATOM     12  H72 UNK     0      42.002  15.591 194.294  0.00  0.00    +0.000 HD
ENDBRANCH   5  11
BRANCH   3  13
ATOM     13  N19 UNK     0      42.204  12.973 192.644  0.00  0.00    +0.000 NA
ATOM     14  H55 UNK     0      41.689  13.726 193.098  0.00  0.00    +0.000 HD
BRANCH  13  15
ATOM     15  C28 UNK     0      42.324  13.227 191.205  0.00  0.00    +0.000 C 
ATOM     16  C31 UNK     0      41.043  13.893 190.658  0.00  0.00    +0.000 C 
ATOM     17  C33 UNK     0      41.042  13.918 189.123  0.00  0.00    +0.000 C 
ATOM     18  C37 UNK     0      42.706  11.976 190.457  0.00  0.00    +0.000 C 
ATOM     19  C38 UNK     0      41.216  12.513 188.515  0.00  0.00    +0.000 C 
ATOM     20  C41 UNK     0      42.205  11.639 189.255  0.00  0.00    +0.000 C 
BRANCH  16  21
ATOM     21  O10 UNK     0      39.869  13.228 191.122  0.00  0.00    +0.000 OA
ATOM     22  H77 UNK     0      39.572  13.684 191.927  0.00  0.00    +0.000 HD
ENDBRANCH  16  21
BRANCH  17  23
ATOM     23  O11 UNK     0      42.107  14.745 188.657  0.00  0.00    +0.000 OA
ATOM     24  H80 UNK     0      41.737  15.623 188.466  0.00  0.00    +0.000 HD
ENDBRANCH  17  23
BRANCH  19  25
ATOM     25  O13 UNK     0      39.960  11.835 188.508  0.00  0.00    +0.000 OA
ATOM     26  H82 UNK     0      40.135  10.894 188.336  0.00  0.00    +0.000 HD
ENDBRANCH  19  25
BRANCH  20  27
ATOM     27  C44 UNK     0      42.619  10.372 188.563  0.00  0.00    +0.000 C 
BRANCH  27  28
ATOM     28  O18 UNK     0      41.485   9.556 188.346  0.00  0.00    +0.000 OA
ATOM     29  H87 UNK     0      40.762  10.138 188.056  0.00  0.00    +0.000 HD
ENDBRANCH  27  28
ENDBRANCH  20  27
ENDBRANCH  13  15
ENDBRANCH   3  13
ENDBRANCH   1   7
BRANCH   1  31
ATOM     30  O3  UNK     0      41.917  15.300 198.784  0.00  0.00    +0.000 OA
ATOM     31  C22 UNK     0      43.943  15.852 197.505  0.00  0.00    +0.000 C 
ATOM     32  C26 UNK     0      43.883  17.287 198.045  0.00  0.00    +0.000 C 
ATOM     33  C27 UNK     0      43.214  14.830 198.392  0.00  0.00    +0.000 C 
ATOM     34  C29 UNK     0      42.480  17.651 198.538  0.00  0.00    +0.000 C 
ATOM     35  C30 UNK     0      41.912  16.561 199.449  0.00  0.00    +0.000 C 
BRANCH  32  36
ATOM     36  O7  UNK     0      44.796  17.439 199.127  0.00  0.00    +0.000 OA
ATOM     37  H73 UNK     0      45.152  16.560 199.337  0.00  0.00    +0.000 HD
ENDBRANCH  32  36
BRANCH  34  38
ATOM     38  O9  UNK     0      41.614  17.838 197.418  0.00  0.00    +0.000 OA
ATOM     39  H74 UNK     0      41.765  18.737 197.078  0.00  0.00    +0.000 HD
ENDBRANCH  34  38
BRANCH  35  40
ATOM     40  O4  UNK     0      40.582  16.926 199.813  0.00  0.00    +0.000 OA
BRANCH  40  42
ATOM     41  O8  UNK     0      37.428  15.135 199.155  0.00  0.00    +0.000 OA
ATOM     42  C32 UNK     0      39.701  15.806 199.749  0.00  0.00    +0.000 C 
ATOM     43  C34 UNK     0      39.486  15.291 201.174  0.00  0.00    +0.000 C 
ATOM     44  C36 UNK     0      38.372  16.211 199.100  0.00  0.00    +0.000 C 
ATOM     45  C40 UNK     0      38.382  14.236 201.202  0.00  0.00    +0.000 C 
ATOM     46  C42 UNK     0      37.119  14.721 200.488  0.00  0.00    +0.000 C 
BRANCH  43  47
ATOM     47  O12 UNK     0      40.708  14.700 201.626  0.00  0.00    +0.000 OA
ATOM     48  H81 UNK     0      40.758  13.796 201.271  0.00  0.00    +0.000 HD
ENDBRANCH  43  47
BRANCH  45  49
ATOM     49  O15 UNK     0      38.085  13.900 202.553  0.00  0.00    +0.000 OA
ATOM     50  H84 UNK     0      37.743  12.989 202.561  0.00  0.00    +0.000 HD
ENDBRANCH  45  49
BRANCH  46  51
ATOM     51  O16 UNK     0      36.428  15.731 201.220  0.00  0.00    +0.000 OA
ATOM     52  H85 UNK     0      37.066  16.442 201.400  0.00  0.00    +0.000 HD
ENDBRANCH  46  51
BRANCH  44  53
ATOM     53  C43 UNK     0      38.542  16.580 197.628  0.00  0.00    +0.000 C 
BRANCH  53  54
ATOM     54  O17 UNK     0      39.591  15.799 197.087  0.00  0.00    +0.000 OA
ATOM     55  H86 UNK     0      39.729  16.099 196.172  0.00  0.00    +0.000 HD
ENDBRANCH  53  54
ENDBRANCH  44  53
ENDBRANCH  40  42
ENDBRANCH  35  40
BRANCH  33  56
ATOM     56  C39 UNK     0      44.027  14.377 199.603  0.00  0.00    +0.000 C 
BRANCH  56  57
ATOM     57  O14 UNK     0      44.130  12.966 199.575  0.00  0.00    +0.000 OA
ATOM     58  H83 UNK     0      44.929  12.746 199.067  0.00  0.00    +0.000 HD
ENDBRANCH  56  57
ENDBRANCH  33  56
ENDBRANCH   1  31
TORSDOF 22
REMARK  Name = HEMCA.pdb
REMARK  4 active torsions:
REMARK  status: ('A' for Active; 'I' for Inactive)
REMARK    1  A    between atoms: C5_5  and  O19_19
REMARK    2  A    between atoms: C6_6  and  O18_18
REMARK    3  A    between atoms: C7_7  and  O20_20
REMARK    4  A    between atoms: C17_17  and  O21_21
REMARK                            x       y       z     vdW  Elec       q    Type
REMARK                         _______ _______ _______ _____ _____    ______ ____
ROOT
ATOM      1  C1  UNK H   1      40.464  10.136 193.998  0.00  0.00    +0.000 A 
ATOM      2  C2  UNK H   1      41.508   9.319 194.138  0.00  0.00    +0.000 A 
ATOM      3  C3  UNK H   1      39.769  10.226 192.699  0.00  0.00    +0.000 A 
ATOM      4  C4  UNK H   1      41.972   8.522 193.001  0.00  0.00    +0.000 A 
ATOM      5  C5  UNK H   1      40.205   9.508 191.666  0.00  0.00    +0.000 A 
ATOM      6  C6  UNK H   1      41.358   8.620 191.823  0.00  0.00    +0.000 A 
ATOM      7  C7  UNK H   1      38.952  12.021 194.739  0.00  0.00    +0.000 C 
ATOM      8  C8  UNK H   1      39.970  11.009 195.068  0.00  0.00    +0.000 C 
ATOM      9  C9  UNK H   1      37.952  11.560 193.679  0.00  0.00    +0.000 C 
ATOM     10  O10 UNK H   1      38.642  11.034 192.550  0.00  0.00    +0.000 OA
ATOM     11  C11 UNK H   1      38.387  12.507 196.112  0.00  0.00    +0.000 C 
ATOM     12  C12 UNK H   1      39.561  12.132 196.970  0.00  0.00    +0.000 C 
ATOM     13  C13 UNK H   1      40.376  11.159 196.330  0.00  0.00    +0.000 C 
ATOM     14  C14 UNK H   1      39.768  12.516 198.223  0.00  0.00    +0.000 C 
ATOM     15  C15 UNK H   1      40.906  11.922 198.943  0.00  0.00    +0.000 C 
ATOM     16  C16 UNK H   1      41.453  10.479 197.046  0.00  0.00    +0.000 C 
ATOM     17  C17 UNK H   1      41.713  10.854 198.301  0.00  0.00    +0.000 C 
ATOM     18  O22 UNK H   1      41.155  12.272 200.102  0.00  0.00    +0.000 OA
ENDROOT
BRANCH   6  19
ATOM     19  O18 UNK H   1      41.804   7.864 190.744  0.00  0.00    +0.000 OA
ATOM     20  H9  UNK H   1      41.179   7.029 190.619  0.00  0.00    +0.000 HD
ENDBRANCH   6  19
BRANCH   5  21
ATOM     21  O19 UNK H   1      39.549   9.584 190.443  0.00  0.00    +0.000 OA
ATOM     22  H10 UNK H   1      38.523   9.742 190.605  0.00  0.00    +0.000 HD
ENDBRANCH   5  21
BRANCH   7  23
ATOM     23  O20 UNK H   1      39.727  13.089 194.191  0.00  0.00    +0.000 OA
ATOM     24  H11 UNK H   1      39.125  13.669 193.556  0.00  0.00    +0.000 HD
ENDBRANCH   7  23
BRANCH  17  25
ATOM     25  O21 UNK H   1      42.741  10.242 199.007  0.00  0.00    +0.000 OA
ATOM     26  H12 UNK H   1      43.549  10.906 199.096  0.00  0.00    +0.000 HD
ENDBRANCH  17  25
TORSDOF 4
ENDMDL
MODEL 6
REMARK VINA RESULT:    -2.857      3.919      7.375
REMARK INTER + INTRA:          -9.464
REMARK INTER:                  -6.486
REMARK INTRA:                  -2.979
REMARK UNBOUND:                -3.684
REMARK  Name = Acarbose.pdb
REMARK  23 active torsions:
REMARK  status: ('A' for Active; 'I' for Inactive)
REMARK    1  A    between atoms: O1_1  and  C22_22
REMARK    2  A    between atoms: O1_1  and  C25_25
REMARK    3  A    between atoms: O4_4  and  C30_30
REMARK    4  A    between atoms: O4_4  and  C32_32
REMARK    5  A    between atoms: O5_5  and  C21_21
REMARK    6  A    between atoms: O6_6  and  C23_23
REMARK    7  A    between atoms: O7_7  and  C26_26
REMARK    8  A    between atoms: O9_9  and  C29_29
REMARK    9  A    between atoms: O10_10  and  C31_31
REMARK   10  A    between atoms: O11_11  and  C33_33
REMARK   11  A    between atoms: O12_12  and  C34_34
REMARK   12  A    between atoms: O13_13  and  C38_38
REMARK   13  A    between atoms: O14_14  and  C39_39
REMARK   14  A    between atoms: O15_15  and  C40_40
REMARK   15  A    between atoms: O16_16  and  C42_42
REMARK   16  A    between atoms: O17_17  and  C43_43
REMARK   17  A    between atoms: O18_18  and  C44_44
REMARK   18  A    between atoms: N19_19  and  C20_20
REMARK   19  A    between atoms: N19_19  and  C28_28
REMARK   20  A    between atoms: C24_24  and  C35_35
REMARK   21  A    between atoms: C27_27  and  C39_39
REMARK   22  A    between atoms: C36_36  and  C43_43
REMARK   23  A    between atoms: C41_41  and  C44_44
REMARK                            x       y       z     vdW  Elec       q    Type
REMARK                         _______ _______ _______ _____ _____    ______ ____
ROOT
ATOM      1  O1  UNK     0      37.827  13.738 197.964  0.00  0.00    +0.000 OA
ENDROOT
BRANCH   1   7
ATOM      2  O2  UNK     0      40.147  13.456 197.814  0.00  0.00    +0.000 OA
ATOM      3  C20 UNK     0      41.618  13.319 199.792  0.00  0.00    +0.000 C 
ATOM      4  C21 UNK     0      40.366  13.173 200.679  0.00  0.00    +0.000 C 
ATOM      5  C23 UNK     0      39.100  13.700 199.997  0.00  0.00    +0.000 C 
ATOM      6  C24 UNK     0      41.363  12.899 198.328  0.00  0.00    +0.000 C 
ATOM      7  C25 UNK     0      38.977  13.155 198.573  0.00  0.00    +0.000 C 
ATOM      8  C35 UNK     0      41.403  11.384 198.114  0.00  0.00    +0.000 C 
BRANCH   4   9
ATOM      9  O5  UNK     0      40.161  11.797 201.001  0.00  0.00    +0.000 OA
ATOM     10  H70 UNK     0      41.035  11.400 201.158  0.00  0.00    +0.000 HD
ENDBRANCH   4   9
BRANCH   5  11
ATOM     11  O6  UNK     0      39.137  15.126 199.942  0.00  0.00    +0.000 OA
ATOM     12  H72 UNK     0      40.034  15.405 200.195  0.00  0.00    +0.000 HD
ENDBRANCH   5  11
BRANCH   3  13
ATOM     13  N19 UNK     0      42.059  14.721 199.805  0.00  0.00    +0.000 NA
ATOM     14  H55 UNK     0      41.315  15.324 199.458  0.00  0.00    +0.000 HD
BRANCH  13  15
ATOM     15  C28 UNK     0      42.459  15.122 201.157  0.00  0.00    +0.000 C 
ATOM     16  C31 UNK     0      42.412  16.658 201.309  0.00  0.00    +0.000 C 
ATOM     17  C33 UNK     0      43.080  17.109 202.616  0.00  0.00    +0.000 C 
ATOM     18  C37 UNK     0      43.793  14.532 201.534  0.00  0.00    +0.000 C 
ATOM     19  C38 UNK     0      44.530  16.603 202.736  0.00  0.00    +0.000 C 
ATOM     20  C41 UNK     0      44.735  15.192 202.231  0.00  0.00    +0.000 C 
BRANCH  16  21
ATOM     21  O10 UNK     0      43.040  17.311 200.206  0.00  0.00    +0.000 OA
ATOM     22  H77 UNK     0      42.591  17.017 199.396  0.00  0.00    +0.000 HD
ENDBRANCH  16  21
BRANCH  17  23
ATOM     23  O11 UNK     0      42.337  16.613 203.728  0.00  0.00    +0.000 OA
ATOM     24  H80 UNK     0      41.395  16.631 203.486  0.00  0.00    +0.000 HD
ENDBRANCH  17  23
BRANCH  19  25
ATOM     25  O13 UNK     0      45.399  17.459 201.994  0.00  0.00    +0.000 OA
ATOM     26  H82 UNK     0      46.193  17.610 202.534  0.00  0.00    +0.000 HD
ENDBRANCH  19  25
BRANCH  20  27
ATOM     27  C44 UNK     0      46.051  14.550 202.569  0.00  0.00    +0.000 C 
BRANCH  27  28
ATOM     28  O18 UNK     0      47.086  15.173 201.833  0.00  0.00    +0.000 OA
ATOM     29  H87 UNK     0      47.773  15.436 202.470  0.00  0.00    +0.000 HD
ENDBRANCH  27  28
ENDBRANCH  20  27
ENDBRANCH  13  15
ENDBRANCH   3  13
ENDBRANCH   1   7
BRANCH   1  31
ATOM     30  O3  UNK     0      37.230  13.767 195.042  0.00  0.00    +0.000 OA
ATOM     31  C22 UNK     0      37.047  12.755 197.275  0.00  0.00    +0.000 C 
ATOM     32  C26 UNK     0      35.579  13.196 197.345  0.00  0.00    +0.000 C 
ATOM     33  C27 UNK     0      37.583  12.629 195.840  0.00  0.00    +0.000 C 
ATOM     34  C29 UNK     0      35.282  14.342 196.375  0.00  0.00    +0.000 C 
ATOM     35  C30 UNK     0      35.834  14.045 194.979  0.00  0.00    +0.000 C 
BRANCH  32  36
ATOM     36  O7  UNK     0      34.726  12.102 197.025  0.00  0.00    +0.000 OA
ATOM     37  H73 UNK     0      34.052  12.041 197.724  0.00  0.00    +0.000 HD
ENDBRANCH  32  36
BRANCH  34  38
ATOM     38  O9  UNK     0      35.862  15.549 196.872  0.00  0.00    +0.000 OA
ATOM     39  H74 UNK     0      35.682  15.589 197.827  0.00  0.00    +0.000 HD
ENDBRANCH  34  38
BRANCH  35  40
ATOM     40  O4  UNK     0      35.589  15.178 194.148  0.00  0.00    +0.000 OA
BRANCH  40  42
ATOM     41  O8  UNK     0      37.994  17.397 192.450  0.00  0.00    +0.000 OA
ATOM     42  C32 UNK     0      36.742  15.515 193.379  0.00  0.00    +0.000 C 
ATOM     43  C34 UNK     0      36.559  14.937 191.974  0.00  0.00    +0.000 C 
ATOM     44  C36 UNK     0      36.925  17.038 193.332  0.00  0.00    +0.000 C 
ATOM     45  C40 UNK     0      37.651  15.450 191.036  0.00  0.00    +0.000 C 
ATOM     46  C42 UNK     0      37.783  16.972 191.102  0.00  0.00    +0.000 C 
BRANCH  43  47
ATOM     47  O12 UNK     0      36.649  13.513 192.061  0.00  0.00    +0.000 OA
ATOM     48  H81 UNK     0      36.649  13.151 191.158  0.00  0.00    +0.000 HD
ENDBRANCH  43  47
BRANCH  45  49
ATOM     49  O15 UNK     0      37.361  15.037 189.705  0.00  0.00    +0.000 OA
ATOM     50  H84 UNK     0      37.227  15.839 189.172  0.00  0.00    +0.000 HD
ENDBRANCH  45  49
BRANCH  46  51
ATOM     51  O16 UNK     0      36.684  17.645 190.490  0.00  0.00    +0.000 OA
ATOM     52  H85 UNK     0      36.156  16.971 190.030  0.00  0.00    +0.000 HD
ENDBRANCH  46  51
BRANCH  44  53
ATOM     53  C43 UNK     0      37.264  17.617 194.704  0.00  0.00    +0.000 C 
BRANCH  53  54
ATOM     54  O17 UNK     0      37.965  16.636 195.445  0.00  0.00    +0.000 OA
ATOM     55  H86 UNK     0      38.146  15.895 194.842  0.00  0.00    +0.000 HD
ENDBRANCH  53  54
ENDBRANCH  44  53
ENDBRANCH  40  42
ENDBRANCH  35  40
BRANCH  33  56
ATOM     56  C39 UNK     0      37.189  11.325 195.149  0.00  0.00    +0.000 C 
BRANCH  56  57
ATOM     57  O14 UNK     0      37.702  11.341 193.829  0.00  0.00    +0.000 OA
ATOM     58  H83 UNK     0      37.641  10.434 193.487  0.00  0.00    +0.000 HD
ENDBRANCH  56  57
ENDBRANCH  33  56
ENDBRANCH   1  31
TORSDOF 22
REMARK  Name = HEMCA.pdb
REMARK  4 active torsions:
REMARK  status: ('A' for Active; 'I' for Inactive)
REMARK    1  A    between atoms: C5_5  and  O19_19
REMARK    2  A    between atoms: C6_6  and  O18_18
REMARK    3  A    between atoms: C7_7  and  O20_20
REMARK    4  A    between atoms: C17_17  and  O21_21
REMARK                            x       y       z     vdW  Elec       q    Type
REMARK                         _______ _______ _______ _____ _____    ______ ____
ROOT
ATOM      1  C1  UNK H   1      44.030  14.752 196.727  0.00  0.00    +0.000 A 
ATOM      2  C2  UNK H   1      44.558  13.528 196.748  0.00  0.00    +0.000 A 
ATOM      3  C3  UNK H   1      44.567  15.799 197.617  0.00  0.00    +0.000 A 
ATOM      4  C4  UNK H   1      45.658  13.221 197.663  0.00  0.00    +0.000 A 
ATOM      5  C5  UNK H   1      45.559  15.509 198.456  0.00  0.00    +0.000 A 
ATOM      6  C6  UNK H   1      46.128  14.161 198.481  0.00  0.00    +0.000 A 
ATOM      7  C7  UNK H   1      42.257  16.440 196.098  0.00  0.00    +0.000 C 
ATOM      8  C8  UNK H   1      42.890  15.128 195.883  0.00  0.00    +0.000 C 
ATOM      9  C9  UNK H   1      43.244  17.538 196.490  0.00  0.00    +0.000 C 
ATOM     10  O10 UNK H   1      44.062  17.099 197.569  0.00  0.00    +0.000 OA
ATOM     11  C11 UNK H   1      41.360  16.680 194.841  0.00  0.00    +0.000 C 
ATOM     12  C12 UNK H   1      41.183  15.247 194.428  0.00  0.00    +0.000 C 
ATOM     13  C13 UNK H   1      42.195  14.422 194.990  0.00  0.00    +0.000 C 
ATOM     14  C14 UNK H   1      40.308  14.791 193.540  0.00  0.00    +0.000 C 
ATOM     15  C15 UNK H   1      40.391  13.371 193.164  0.00  0.00    +0.000 C 
ATOM     16  C16 UNK H   1      42.365  13.034 194.567  0.00  0.00    +0.000 C 
ATOM     17  C17 UNK H   1      41.491  12.527 193.695  0.00  0.00    +0.000 C 
ATOM     18  O22 UNK H   1      39.579  12.895 192.363  0.00  0.00    +0.000 OA
ENDROOT
BRANCH   6  19
ATOM     19  O18 UNK H   1      47.172  13.865 199.351  0.00  0.00    +0.000 OA
ATOM     20  H9  UNK H   1      47.703  14.744 199.573  0.00  0.00    +0.000 HD
ENDBRANCH   6  19
BRANCH   5  21
ATOM     21  O19 UNK H   1      46.072  16.496 199.290  0.00  0.00    +0.000 OA
ATOM     22  H10 UNK H   1      47.110  16.371 199.383  0.00  0.00    +0.000 HD
ENDBRANCH   5  21
BRANCH   7  23
ATOM     23  O20 UNK H   1      41.389  16.199 197.207  0.00  0.00    +0.000 OA
ATOM     24  H11 UNK H   1      40.795  17.048 197.378  0.00  0.00    +0.000 HD
ENDBRANCH   7  23
BRANCH  17  25
ATOM     25  O21 UNK H   1      41.612  11.205 193.282  0.00  0.00    +0.000 OA
ATOM     26  H12 UNK H   1      42.184  11.163 192.402  0.00  0.00    +0.000 HD
ENDBRANCH  17  25
TORSDOF 4
ENDMDL
MODEL 7
REMARK VINA RESULT:    -2.824      3.712      9.783
REMARK INTER + INTRA:          -9.397
REMARK INTER:                  -6.447
REMARK INTRA:                  -2.951
REMARK UNBOUND:                -3.684
REMARK  Name = Acarbose.pdb
REMARK  23 active torsions:
REMARK  status: ('A' for Active; 'I' for Inactive)
REMARK    1  A    between atoms: O1_1  and  C22_22
REMARK    2  A    between atoms: O1_1  and  C25_25
REMARK    3  A    between atoms: O4_4  and  C30_30
REMARK    4  A    between atoms: O4_4  and  C32_32
REMARK    5  A    between atoms: O5_5  and  C21_21
REMARK    6  A    between atoms: O6_6  and  C23_23
REMARK    7  A    between atoms: O7_7  and  C26_26
REMARK    8  A    between atoms: O9_9  and  C29_29
REMARK    9  A    between atoms: O10_10  and  C31_31
REMARK   10  A    between atoms: O11_11  and  C33_33
REMARK   11  A    between atoms: O12_12  and  C34_34
REMARK   12  A    between atoms: O13_13  and  C38_38
REMARK   13  A    between atoms: O14_14  and  C39_39
REMARK   14  A    between atoms: O15_15  and  C40_40
REMARK   15  A    between atoms: O16_16  and  C42_42
REMARK   16  A    between atoms: O17_17  and  C43_43
REMARK   17  A    between atoms: O18_18  and  C44_44
REMARK   18  A    between atoms: N19_19  and  C20_20
REMARK   19  A    between atoms: N19_19  and  C28_28
REMARK   20  A    between atoms: C24_24  and  C35_35
REMARK   21  A    between atoms: C27_27  and  C39_39
REMARK   22  A    between atoms: C36_36  and  C43_43
REMARK   23  A    between atoms: C41_41  and  C44_44
REMARK                            x       y       z     vdW  Elec       q    Type
REMARK                         _______ _______ _______ _____ _____    ______ ____
ROOT
ATOM      1  O1  UNK     0      37.464  13.857 198.165  0.00  0.00    +0.000 OA
ENDROOT
BRANCH   1   7
ATOM      2  O2  UNK     0      38.211  16.076 198.158  0.00  0.00    +0.000 OA
ATOM      3  C20 UNK     0      39.484  17.063 196.287  0.00  0.00    +0.000 C 
ATOM      4  C21 UNK     0      39.135  15.828 195.434  0.00  0.00    +0.000 C 
ATOM      5  C23 UNK     0      38.751  14.616 196.287  0.00  0.00    +0.000 C 
ATOM      6  C24 UNK     0      38.487  17.288 197.444  0.00  0.00    +0.000 C 
ATOM      7  C25 UNK     0      37.725  15.001 197.355  0.00  0.00    +0.000 C 
ATOM      8  C35 UNK     0      37.190  17.972 197.006  0.00  0.00    +0.000 C 
BRANCH   4   9
ATOM      9  O5  UNK     0      38.041  16.132 194.569  0.00  0.00    +0.000 OA
ATOM     10  H70 UNK     0      38.286  15.842 193.674  0.00  0.00    +0.000 HD
ENDBRANCH   4   9
BRANCH   5  11
ATOM     11  O6  UNK     0      39.910  14.089 196.932  0.00  0.00    +0.000 OA
ATOM     12  H72 UNK     0      40.581  13.934 196.246  0.00  0.00    +0.000 HD
ENDBRANCH   5  11
BRANCH   3  13
ATOM     13  N19 UNK     0      40.829  16.895 196.855  0.00  0.00    +0.000 NA
ATOM     14  H55 UNK     0      41.015  15.908 197.026  0.00  0.00    +0.000 HD
BRANCH  13  15
ATOM     15  C28 UNK     0      41.842  17.461 195.959  0.00  0.00    +0.000 C 
ATOM     16  C31 UNK     0      43.263  17.075 196.424  0.00  0.00    +0.000 C 
ATOM     17  C33 UNK     0      44.332  17.873 195.666  0.00  0.00    +0.000 C 
ATOM     18  C37 UNK     0      41.658  18.947 195.793  0.00  0.00    +0.000 C 
ATOM     19  C38 UNK     0      44.124  19.395 195.790  0.00  0.00    +0.000 C 
ATOM     20  C41 UNK     0      42.675  19.826 195.728  0.00  0.00    +0.000 C 
BRANCH  16  21
ATOM     21  O10 UNK     0      43.426  17.277 197.827  0.00  0.00    +0.000 OA
ATOM     22  H77 UNK     0      44.377  17.369 198.002  0.00  0.00    +0.000 HD
ENDBRANCH  16  21
BRANCH  17  23
ATOM     23  O11 UNK     0      44.297  17.526 194.282  0.00  0.00    +0.000 OA
ATOM     24  H80 UNK     0      43.870  18.258 193.805  0.00  0.00    +0.000 HD
ENDBRANCH  17  23
BRANCH  19  25
ATOM     25  O13 UNK     0      44.659  19.851 197.031  0.00  0.00    +0.000 OA
ATOM     26  H82 UNK     0      43.945  19.813 197.691  0.00  0.00    +0.000 HD
ENDBRANCH  19  25
BRANCH  20  27
ATOM     27  C44 UNK     0      42.426  21.299 195.570  0.00  0.00    +0.000 C 
BRANCH  27  28
ATOM     28  O18 UNK     0      42.705  21.961 196.788  0.00  0.00    +0.000 OA
ATOM     29  H87 UNK     0      43.572  22.391 196.690  0.00  0.00    +0.000 HD
ENDBRANCH  27  28
ENDBRANCH  20  27
ENDBRANCH  13  15
ENDBRANCH   3  13
ENDBRANCH   1   7
BRANCH   1  31
ATOM     30  O3  UNK     0      36.492  12.547 200.662  0.00  0.00    +0.000 OA
ATOM     31  C22 UNK     0      36.100  13.824 198.597  0.00  0.00    +0.000 C 
ATOM     32  C26 UNK     0      35.443  12.589 197.968  0.00  0.00    +0.000 C 
ATOM     33  C27 UNK     0      36.079  13.815 200.135  0.00  0.00    +0.000 C 
ATOM     34  C29 UNK     0      35.866  11.298 198.674  0.00  0.00    +0.000 C 
ATOM     35  C30 UNK     0      35.740  11.430 200.193  0.00  0.00    +0.000 C 
BRANCH  32  36
ATOM     36  O7  UNK     0      34.026  12.700 198.040  0.00  0.00    +0.000 OA
ATOM     37  H73 UNK     0      33.757  12.453 198.940  0.00  0.00    +0.000 HD
ENDBRANCH  32  36
BRANCH  34  38
ATOM     38  O9  UNK     0      37.216  10.986 198.330  0.00  0.00    +0.000 OA
ATOM     39  H74 UNK     0      37.195  10.236 197.711  0.00  0.00    +0.000 HD
ENDBRANCH  34  38
BRANCH  35  40
ATOM     40  O4  UNK     0      36.216  10.225 200.791  0.00  0.00    +0.000 OA
BRANCH  40  42
ATOM     41  O8  UNK     0      38.994   9.725 203.162  0.00  0.00    +0.000 OA
ATOM     42  C32 UNK     0      37.031  10.498 201.929  0.00  0.00    +0.000 C 
ATOM     43  C34 UNK     0      36.169  10.321 203.182  0.00  0.00    +0.000 C 
ATOM     44  C36 UNK     0      38.243   9.558 201.954  0.00  0.00    +0.000 C 
ATOM     45  C40 UNK     0      37.033  10.379 204.440  0.00  0.00    +0.000 C 
ATOM     46  C42 UNK     0      38.239   9.443 204.341  0.00  0.00    +0.000 C 
BRANCH  43  47
ATOM     47  O12 UNK     0      35.214  11.384 203.221  0.00  0.00    +0.000 OA
ATOM     48  H81 UNK     0      34.893  11.540 202.317  0.00  0.00    +0.000 HD
ENDBRANCH  43  47
BRANCH  45  49
ATOM     49  O15 UNK     0      36.239  10.043 205.572  0.00  0.00    +0.000 OA
ATOM     50  H84 UNK     0      35.306  10.141 205.315  0.00  0.00    +0.000 HD
ENDBRANCH  45  49
BRANCH  46  51
ATOM     51  O16 UNK     0      37.873   8.067 204.432  0.00  0.00    +0.000 OA
ATOM     52  H85 UNK     0      38.696   7.553 204.475  0.00  0.00    +0.000 HD
ENDBRANCH  46  51
BRANCH  44  53
ATOM     53  C43 UNK     0      39.199   9.825 200.794  0.00  0.00    +0.000 C 
BRANCH  53  54
ATOM     54  O17 UNK     0      39.146  11.203 200.475  0.00  0.00    +0.000 OA
ATOM     55  H86 UNK     0      38.276  11.530 200.759  0.00  0.00    +0.000 HD
ENDBRANCH  53  54
ENDBRANCH  44  53
ENDBRANCH  40  42
ENDBRANCH  35  40
BRANCH  33  56
ATOM     56  C39 UNK     0      34.744  14.255 200.734  0.00  0.00    +0.000 C 
BRANCH  56  57
ATOM     57  O14 UNK     0      34.820  14.132 202.142  0.00  0.00    +0.000 OA
ATOM     58  H83 UNK     0      34.654  15.014 202.516  0.00  0.00    +0.000 HD
ENDBRANCH  56  57
ENDBRANCH  33  56
ENDBRANCH   1  31
TORSDOF 22
REMARK  Name = HEMCA.pdb
REMARK  4 active torsions:
REMARK  status: ('A' for Active; 'I' for Inactive)
REMARK    1  A    between atoms: C5_5  and  O19_19
REMARK    2  A    between atoms: C6_6  and  O18_18
REMARK    3  A    between atoms: C7_7  and  O20_20
REMARK    4  A    between atoms: C17_17  and  O21_21
REMARK                            x       y       z     vdW  Elec       q    Type
REMARK                         _______ _______ _______ _____ _____    ______ ____
ROOT
ATOM      1  C1  UNK H   1      39.053  16.371 201.819  0.00  0.00    +0.000 A 
ATOM      2  C2  UNK H   1      40.265  15.862 201.597  0.00  0.00    +0.000 A 
ATOM      3  C3  UNK H   1      38.042  15.572 202.540  0.00  0.00    +0.000 A 
ATOM      4  C4  UNK H   1      40.588  14.509 202.054  0.00  0.00    +0.000 A 
ATOM      5  C5  UNK H   1      38.338  14.338 202.941  0.00  0.00    +0.000 A 
ATOM      6  C6  UNK H   1      39.667  13.781 202.685  0.00  0.00    +0.000 A 
ATOM      7  C7  UNK H   1      37.210  18.062 201.463  0.00  0.00    +0.000 C 
ATOM      8  C8  UNK H   1      38.631  17.693 201.346  0.00  0.00    +0.000 C 
ATOM      9  C9  UNK H   1      36.533  17.505 202.715  0.00  0.00    +0.000 C 
ATOM     10  O10 UNK H   1      36.787  16.109 202.829  0.00  0.00    +0.000 OA
ATOM     11  C11 UNK H   1      37.160  19.607 201.232  0.00  0.00    +0.000 C 
ATOM     12  C12 UNK H   1      38.441  19.748 200.461  0.00  0.00    +0.000 C 
ATOM     13  C13 UNK H   1      39.297  18.635 200.678  0.00  0.00    +0.000 C 
ATOM     14  C14 UNK H   1      38.828  20.819 199.779  0.00  0.00    +0.000 C 
ATOM     15  C15 UNK H   1      40.186  20.815 199.211  0.00  0.00    +0.000 C 
ATOM     16  C16 UNK H   1      40.682  18.640 200.212  0.00  0.00    +0.000 C 
ATOM     17  C17 UNK H   1      41.106  19.685 199.498  0.00  0.00    +0.000 C 
ATOM     18  O22 UNK H   1      40.579  21.777 198.543  0.00  0.00    +0.000 OA
ENDROOT
BRANCH   6  19
ATOM     19  O18 UNK H   1      39.976  12.495 203.116  0.00  0.00    +0.000 OA
ATOM     20  H9  UNK H   1      39.916  12.453 204.164  0.00  0.00    +0.000 HD
ENDBRANCH   6  19
BRANCH   5  21
ATOM     21  O19 UNK H   1      37.391  13.587 203.627  0.00  0.00    +0.000 OA
ATOM     22  H10 UNK H   1      37.875  12.930 204.288  0.00  0.00    +0.000 HD
ENDBRANCH   5  21
BRANCH   7  23
ATOM     23  O20 UNK H   1      36.622  17.438 200.319  0.00  0.00    +0.000 OA
ATOM     24  H11 UNK H   1      35.997  16.654 200.630  0.00  0.00    +0.000 HD
ENDBRANCH   7  23
BRANCH  17  25
ATOM     25  O21 UNK H   1      42.412  19.716 199.024  0.00  0.00    +0.000 OA
ATOM     26  H12 UNK H   1      43.037  19.191 199.684  0.00  0.00    +0.000 HD
ENDBRANCH  17  25
TORSDOF 4
ENDMDL
MODEL 8
REMARK VINA RESULT:    -2.821      2.845      6.662
REMARK INTER + INTRA:          -9.392
REMARK INTER:                  -6.435
REMARK INTRA:                  -2.957
REMARK UNBOUND:                -3.684
REMARK  Name = Acarbose.pdb
REMARK  23 active torsions:
REMARK  status: ('A' for Active; 'I' for Inactive)
REMARK    1  A    between atoms: O1_1  and  C22_22
REMARK    2  A    between atoms: O1_1  and  C25_25
REMARK    3  A    between atoms: O4_4  and  C30_30
REMARK    4  A    between atoms: O4_4  and  C32_32
REMARK    5  A    between atoms: O5_5  and  C21_21
REMARK    6  A    between atoms: O6_6  and  C23_23
REMARK    7  A    between atoms: O7_7  and  C26_26
REMARK    8  A    between atoms: O9_9  and  C29_29
REMARK    9  A    between atoms: O10_10  and  C31_31
REMARK   10  A    between atoms: O11_11  and  C33_33
REMARK   11  A    between atoms: O12_12  and  C34_34
REMARK   12  A    between atoms: O13_13  and  C38_38
REMARK   13  A    between atoms: O14_14  and  C39_39
REMARK   14  A    between atoms: O15_15  and  C40_40
REMARK   15  A    between atoms: O16_16  and  C42_42
REMARK   16  A    between atoms: O17_17  and  C43_43
REMARK   17  A    between atoms: O18_18  and  C44_44
REMARK   18  A    between atoms: N19_19  and  C20_20
REMARK   19  A    between atoms: N19_19  and  C28_28
REMARK   20  A    between atoms: C24_24  and  C35_35
REMARK   21  A    between atoms: C27_27  and  C39_39
REMARK   22  A    between atoms: C36_36  and  C43_43
REMARK   23  A    between atoms: C41_41  and  C44_44
REMARK                            x       y       z     vdW  Elec       q    Type
REMARK                         _______ _______ _______ _____ _____    ______ ____
ROOT
ATOM      1  O1  UNK     0      37.996  18.019 195.224  0.00  0.00    +0.000 OA
ENDROOT
BRANCH   1   7
ATOM      2  O2  UNK     0      37.365  18.017 197.479  0.00  0.00    +0.000 OA
ATOM      3  C20 UNK     0      38.568  19.296 199.215  0.00  0.00    +0.000 C 
ATOM      4  C21 UNK     0      39.331  20.039 198.101  0.00  0.00    +0.000 C 
ATOM      5  C23 UNK     0      39.331  19.268 196.778  0.00  0.00    +0.000 C 
ATOM      6  C24 UNK     0      37.226  18.708 198.728  0.00  0.00    +0.000 C 
ATOM      7  C25 UNK     0      37.922  18.793 196.420  0.00  0.00    +0.000 C 
ATOM      8  C35 UNK     0      36.097  19.738 198.658  0.00  0.00    +0.000 C 
BRANCH   4   9
ATOM      9  O5  UNK     0      38.734  21.315 197.876  0.00  0.00    +0.000 OA
ATOM     10  H70 UNK     0      39.217  21.965 198.415  0.00  0.00    +0.000 HD
ENDBRANCH   4   9
BRANCH   5  11
ATOM     11  O6  UNK     0      40.187  18.131 196.879  0.00  0.00    +0.000 OA
ATOM     12  H72 UNK     0      39.869  17.591 197.624  0.00  0.00    +0.000 HD
ENDBRANCH   5  11
BRANCH   3  13
ATOM     13  N19 UNK     0      39.401  18.199 199.725  0.00  0.00    +0.000 NA
ATOM     14  H55 UNK     0      39.972  17.816 198.973  0.00  0.00    +0.000 HD
BRANCH  13  15
ATOM     15  C28 UNK     0      40.248  18.664 200.828  0.00  0.00    +0.000 C 
ATOM     16  C31 UNK     0      41.304  17.600 201.195  0.00  0.00    +0.000 C 
ATOM     17  C33 UNK     0      42.015  17.951 202.509  0.00  0.00    +0.000 C 
ATOM     18  C37 UNK     0      39.421  19.106 202.007  0.00  0.00    +0.000 C 
ATOM     19  C38 UNK     0      41.027  18.148 203.674  0.00  0.00    +0.000 C 
ATOM     20  C41 UNK     0      39.754  18.869 203.288  0.00  0.00    +0.000 C 
BRANCH  16  21
ATOM     21  O10 UNK     0      40.721  16.301 201.304  0.00  0.00    +0.000 OA
ATOM     22  H77 UNK     0      40.104  16.319 202.054  0.00  0.00    +0.000 HD
ENDBRANCH  16  21
BRANCH  17  23
ATOM     23  O11 UNK     0      42.760  19.157 202.342  0.00  0.00    +0.000 OA
ATOM     24  H80 UNK     0      43.082  19.428 203.219  0.00  0.00    +0.000 HD
ENDBRANCH  17  23
BRANCH  19  25
ATOM     25  O13 UNK     0      40.660  16.877 204.210  0.00  0.00    +0.000 OA
ATOM     26  H82 UNK     0      41.306  16.652 204.901  0.00  0.00    +0.000 HD
ENDBRANCH  19  25
BRANCH  20  27
ATOM     27  C44 UNK     0      38.882  19.329 204.421  0.00  0.00    +0.000 C 
BRANCH  27  28
ATOM     28  O18 UNK     0      38.199  18.221 204.976  0.00  0.00    +0.000 OA
ATOM     29  H87 UNK     0      38.154  18.363 205.937  0.00  0.00    +0.000 HD
ENDBRANCH  27  28
ENDBRANCH  20  27
ENDBRANCH  13  15
ENDBRANCH   3  13
ENDBRANCH   1   7
BRANCH   1  31
ATOM     30  O3  UNK     0      36.907  15.983 193.337  0.00  0.00    +0.000 OA
ATOM     31  C22 UNK     0      36.824  18.189 194.420  0.00  0.00    +0.000 C 
ATOM     32  C26 UNK     0      37.256  18.843 193.102  0.00  0.00    +0.000 C 
ATOM     33  C27 UNK     0      36.160  16.814 194.235  0.00  0.00    +0.000 C 
ATOM     34  C29 UNK     0      37.946  17.844 192.170  0.00  0.00    +0.000 C 
ATOM     35  C30 UNK     0      37.139  16.549 192.049  0.00  0.00    +0.000 C 
BRANCH  32  36
ATOM     36  O7  UNK     0      36.122  19.380 192.428  0.00  0.00    +0.000 OA
ATOM     37  H73 UNK     0      36.344  20.286 192.156  0.00  0.00    +0.000 HD
ENDBRANCH  32  36
BRANCH  34  38
ATOM     38  O9  UNK     0      39.252  17.550 192.668  0.00  0.00    +0.000 OA
ATOM     39  H74 UNK     0      39.296  17.873 193.584  0.00  0.00    +0.000 HD
ENDBRANCH  34  38
BRANCH  35  40
ATOM     40  O4  UNK     0      37.869  15.638 191.230  0.00  0.00    +0.000 OA
BRANCH  40  42
ATOM     41  O8  UNK     0      39.160  12.279 192.030  0.00  0.00    +0.000 OA
ATOM     42  C32 UNK     0      37.839  14.318 191.768  0.00  0.00    +0.000 C 
ATOM     43  C34 UNK     0      36.759  13.528 191.024  0.00  0.00    +0.000 C 
ATOM     44  C36 UNK     0      39.213  13.651 191.622  0.00  0.00    +0.000 C 
ATOM     45  C40 UNK     0      36.826  12.048 191.395  0.00  0.00    +0.000 C 
ATOM     46  C42 UNK     0      38.245  11.495 191.262  0.00  0.00    +0.000 C 
BRANCH  43  47
ATOM     47  O12 UNK     0      35.483  14.049 191.404  0.00  0.00    +0.000 OA
ATOM     48  H81 UNK     0      35.626  14.863 191.915  0.00  0.00    +0.000 HD
ENDBRANCH  43  47
BRANCH  45  49
ATOM     49  O15 UNK     0      35.930  11.314 190.567  0.00  0.00    +0.000 OA
ATOM     50  H84 UNK     0      35.128  11.853 190.453  0.00  0.00    +0.000 HD
ENDBRANCH  45  49
BRANCH  46  51
ATOM     51  O16 UNK     0      38.656  11.362 189.902  0.00  0.00    +0.000 OA
ATOM     52  H85 UNK     0      39.226  10.577 189.850  0.00  0.00    +0.000 HD
ENDBRANCH  46  51
BRANCH  44  53
ATOM     53  C43 UNK     0      40.275  14.332 192.482  0.00  0.00    +0.000 C 
BRANCH  53  54
ATOM     54  O17 UNK     0      39.651  14.850 193.642  0.00  0.00    +0.000 OA
ATOM     55  H86 UNK     0      39.642  14.139 194.305  0.00  0.00    +0.000 HD
ENDBRANCH  53  54
ENDBRANCH  44  53
ENDBRANCH  40  42
ENDBRANCH  35  40
BRANCH  33  56
ATOM     56  C39 UNK     0      34.691  16.891 193.824  0.00  0.00    +0.000 C 
BRANCH  56  57
ATOM     57  O14 UNK     0      34.204  15.574 193.643  0.00  0.00    +0.000 OA
ATOM     58  H83 UNK     0      34.388  15.325 192.721  0.00  0.00    +0.000 HD
ENDBRANCH  56  57
ENDBRANCH  33  56
ENDBRANCH   1  31
TORSDOF 22
REMARK  Name = HEMCA.pdb
REMARK  4 active torsions:
REMARK  status: ('A' for Active; 'I' for Inactive)
REMARK    1  A    between atoms: C5_5  and  O19_19
REMARK    2  A    between atoms: C6_6  and  O18_18
REMARK    3  A    between atoms: C7_7  and  O20_20
REMARK    4  A    between atoms: C17_17  and  O21_21
REMARK                            x       y       z     vdW  Elec       q    Type
REMARK                         _______ _______ _______ _____ _____    ______ ____
ROOT
ATOM      1  C1  UNK H   1      36.275  14.425 197.790  0.00  0.00    +0.000 A 
ATOM      2  C2  UNK H   1      37.532  14.052 198.028  0.00  0.00    +0.000 A 
ATOM      3  C3  UNK H   1      35.639  14.085 196.502  0.00  0.00    +0.000 A 
ATOM      4  C4  UNK H   1      38.286  13.320 197.009  0.00  0.00    +0.000 A 
ATOM      5  C5  UNK H   1      36.335  13.430 195.574  0.00  0.00    +0.000 A 
ATOM      6  C6  UNK H   1      37.719  13.033 195.838  0.00  0.00    +0.000 A 
ATOM      7  C7  UNK H   1      34.175  15.743 198.278  0.00  0.00    +0.000 C 
ATOM      8  C8  UNK H   1      35.469  15.208 198.733  0.00  0.00    +0.000 C 
ATOM      9  C9  UNK H   1      33.437  14.820 197.310  0.00  0.00    +0.000 C 
ATOM     10  O10 UNK H   1      34.307  14.418 196.257  0.00  0.00    +0.000 OA
ATOM     11  C11 UNK H   1      33.427  16.185 199.577  0.00  0.00    +0.000 C 
ATOM     12  C12 UNK H   1      34.627  16.368 200.462  0.00  0.00    +0.000 C 
ATOM     13  C13 UNK H   1      35.752  15.663 199.954  0.00  0.00    +0.000 C 
ATOM     14  C14 UNK H   1      34.642  16.969 201.645  0.00  0.00    +0.000 C 
ATOM     15  C15 UNK H   1      35.889  16.917 202.424  0.00  0.00    +0.000 C 
ATOM     16  C16 UNK H   1      36.972  15.510 200.743  0.00  0.00    +0.000 C 
ATOM     17  C17 UNK H   1      37.040  16.121 201.928  0.00  0.00    +0.000 C 
ATOM     18  O22 UNK H   1      35.959  17.487 203.518  0.00  0.00    +0.000 OA
ENDROOT
BRANCH   6  19
ATOM     19  O18 UNK H   1      38.438  12.340 194.871  0.00  0.00    +0.000 OA
ATOM     20  H9  UNK H   1      39.235  11.829 195.326  0.00  0.00    +0.000 HD
ENDBRANCH   6  19
BRANCH   5  21
ATOM     21  O19 UNK H   1      35.737  13.102 194.363  0.00  0.00    +0.000 OA
ATOM     22  H10 UNK H   1      34.695  13.070 194.484  0.00  0.00    +0.000 HD
ENDBRANCH   5  21
BRANCH   7  23
ATOM     23  O20 UNK H   1      34.548  16.929 197.573  0.00  0.00    +0.000 OA
ATOM     24  H11 UNK H   1      34.712  16.698 196.562  0.00  0.00    +0.000 HD
ENDBRANCH   7  23
BRANCH  17  25
ATOM     25  O21 UNK H   1      38.191  16.011 202.699  0.00  0.00    +0.000 OA
ATOM     26  H12 UNK H   1      38.153  16.705 203.486  0.00  0.00    +0.000 HD
ENDBRANCH  17  25
TORSDOF 4
ENDMDL
MODEL 9
REMARK VINA RESULT:    -2.820      3.673      7.035
REMARK INTER + INTRA:          -9.388
REMARK INTER:                  -6.442
REMARK INTRA:                  -2.946
REMARK UNBOUND:                -3.684
REMARK  Name = Acarbose.pdb
REMARK  23 active torsions:
REMARK  status: ('A' for Active; 'I' for Inactive)
REMARK    1  A    between atoms: O1_1  and  C22_22
REMARK    2  A    between atoms: O1_1  and  C25_25
REMARK    3  A    between atoms: O4_4  and  C30_30
REMARK    4  A    between atoms: O4_4  and  C32_32
REMARK    5  A    between atoms: O5_5  and  C21_21
REMARK    6  A    between atoms: O6_6  and  C23_23
REMARK    7  A    between atoms: O7_7  and  C26_26
REMARK    8  A    between atoms: O9_9  and  C29_29
REMARK    9  A    between atoms: O10_10  and  C31_31
REMARK   10  A    between atoms: O11_11  and  C33_33
REMARK   11  A    between atoms: O12_12  and  C34_34
REMARK   12  A    between atoms: O13_13  and  C38_38
REMARK   13  A    between atoms: O14_14  and  C39_39
REMARK   14  A    between atoms: O15_15  and  C40_40
REMARK   15  A    between atoms: O16_16  and  C42_42
REMARK   16  A    between atoms: O17_17  and  C43_43
REMARK   17  A    between atoms: O18_18  and  C44_44
REMARK   18  A    between atoms: N19_19  and  C20_20
REMARK   19  A    between atoms: N19_19  and  C28_28
REMARK   20  A    between atoms: C24_24  and  C35_35
REMARK   21  A    between atoms: C27_27  and  C39_39
REMARK   22  A    between atoms: C36_36  and  C43_43
REMARK   23  A    between atoms: C41_41  and  C44_44
REMARK                            x       y       z     vdW  Elec       q    Type
REMARK                         _______ _______ _______ _____ _____    ______ ____
ROOT
ATOM      1  O1  UNK     0      37.693  15.764 194.123  0.00  0.00    +0.000 OA
ENDROOT
BRANCH   1   7
ATOM      2  O2  UNK     0      36.248  13.971 193.694  0.00  0.00    +0.000 OA
ATOM      3  C20 UNK     0      35.259  12.580 195.478  0.00  0.00    +0.000 C 
ATOM      4  C21 UNK     0      35.742  13.614 196.514  0.00  0.00    +0.000 C 
ATOM      5  C23 UNK     0      36.888  14.481 195.986  0.00  0.00    +0.000 C 
ATOM      6  C24 UNK     0      35.111  13.180 194.063  0.00  0.00    +0.000 C 
ATOM      7  C25 UNK     0      36.563  15.031 194.595  0.00  0.00    +0.000 C 
ATOM      8  C35 UNK     0      33.813  13.966 193.867  0.00  0.00    +0.000 C 
BRANCH   4   9
ATOM      9  O5  UNK     0      34.662  14.473 196.878  0.00  0.00    +0.000 OA
ATOM     10  H70 UNK     0      34.717  14.622 197.838  0.00  0.00    +0.000 HD
ENDBRANCH   4   9
BRANCH   5  11
ATOM     11  O6  UNK     0      38.085  13.708 195.905  0.00  0.00    +0.000 OA
ATOM     12  H72 UNK     0      38.214  13.464 194.972  0.00  0.00    +0.000 HD
ENDBRANCH   5  11
BRANCH   3  13
ATOM     13  N19 UNK     0      36.221  11.470 195.416  0.00  0.00    +0.000 NA
ATOM     14  H55 UNK     0      37.162  11.815 195.595  0.00  0.00    +0.000 HD
BRANCH  13  15
ATOM     15  C28 UNK     0      35.863  10.426 196.380  0.00  0.00    +0.000 C 
ATOM     16  C31 UNK     0      37.010   9.402 196.529  0.00  0.00    +0.000 C 
ATOM     17  C33 UNK     0      36.554   8.167 197.319  0.00  0.00    +0.000 C 
ATOM     18  C37 UNK     0      34.543   9.787 196.035  0.00  0.00    +0.000 C 
ATOM     19  C38 UNK     0      35.316   7.497 196.693  0.00  0.00    +0.000 C 
ATOM     20  C41 UNK     0      34.291   8.472 196.159  0.00  0.00    +0.000 C 
BRANCH  16  21
ATOM     21  O10 UNK     0      37.513   8.993 195.257  0.00  0.00    +0.000 OA
ATOM     22  H77 UNK     0      38.235   8.363 195.417  0.00  0.00    +0.000 HD
ENDBRANCH  16  21
BRANCH  17  23
ATOM     23  O11 UNK     0      36.232   8.547 198.656  0.00  0.00    +0.000 OA
ATOM     24  H80 UNK     0      36.049   7.733 199.157  0.00  0.00    +0.000 HD
ENDBRANCH  17  23
BRANCH  19  25
ATOM     25  O13 UNK     0      35.722   6.659 195.611  0.00  0.00    +0.000 OA
ATOM     26  H82 UNK     0      36.507   6.164 195.902  0.00  0.00    +0.000 HD
ENDBRANCH  19  25
BRANCH  20  27
ATOM     27  C44 UNK     0      32.954   7.894 195.789  0.00  0.00    +0.000 C 
BRANCH  27  28
ATOM     28  O18 UNK     0      33.056   7.213 194.554  0.00  0.00    +0.000 OA
ATOM     29  H87 UNK     0      33.481   6.356 194.732  0.00  0.00    +0.000 HD
ENDBRANCH  27  28
ENDBRANCH  20  27
ENDBRANCH  13  15
ENDBRANCH   3  13
ENDBRANCH   1   7
BRANCH   1  31
ATOM     30  O3  UNK     0      39.335  17.009 191.968  0.00  0.00    +0.000 OA
ATOM     31  C22 UNK     0      37.292  16.886 193.330  0.00  0.00    +0.000 C 
ATOM     32  C26 UNK     0      37.721  18.157 194.074  0.00  0.00    +0.000 C 
ATOM     33  C27 UNK     0      37.926  16.746 191.937  0.00  0.00    +0.000 C 
ATOM     34  C29 UNK     0      39.227  18.406 193.954  0.00  0.00    +0.000 C 
ATOM     35  C30 UNK     0      39.696  18.281 192.503  0.00  0.00    +0.000 C 
BRANCH  32  36
ATOM     36  O7  UNK     0      37.033  19.287 193.547  0.00  0.00    +0.000 OA
ATOM     37  H73 UNK     0      37.232  20.045 194.121  0.00  0.00    +0.000 HD
ENDBRANCH  32  36
BRANCH  34  38
ATOM     38  O9  UNK     0      39.932  17.467 194.767  0.00  0.00    +0.000 OA
ATOM     39  H74 UNK     0      40.349  17.963 195.492  0.00  0.00    +0.000 HD
ENDBRANCH  34  38
BRANCH  35  40
ATOM     40  O4  UNK     0      41.111  18.450 192.470  0.00  0.00    +0.000 OA
BRANCH  40  42
ATOM     41  O8  UNK     0      43.729  16.128 191.312  0.00  0.00    +0.000 OA
ATOM     42  C32 UNK     0      41.728  17.499 191.605  0.00  0.00    +0.000 C 
ATOM     43  C34 UNK     0      41.995  18.184 190.263  0.00  0.00    +0.000 C 
ATOM     44  C36 UNK     0      43.029  16.977 192.229  0.00  0.00    +0.000 C 
ATOM     45  C40 UNK     0      42.853  17.292 189.367  0.00  0.00    +0.000 C 
ATOM     46  C42 UNK     0      44.098  16.787 190.099  0.00  0.00    +0.000 C 
BRANCH  43  47
ATOM     47  O12 UNK     0      40.738  18.418 189.622  0.00  0.00    +0.000 OA
ATOM     48  H81 UNK     0      40.448  19.320 189.840  0.00  0.00    +0.000 HD
ENDBRANCH  43  47
BRANCH  45  49
ATOM     49  O15 UNK     0      43.227  18.017 188.201  0.00  0.00    +0.000 OA
ATOM     50  H84 UNK     0      44.123  18.367 188.348  0.00  0.00    +0.000 HD
ENDBRANCH  45  49
BRANCH  46  51
ATOM     51  O16 UNK     0      45.062  17.815 190.314  0.00  0.00    +0.000 OA
ATOM     52  H85 UNK     0      45.302  18.171 189.443  0.00  0.00    +0.000 HD
ENDBRANCH  46  51
BRANCH  44  53
ATOM     53  C43 UNK     0      42.770  16.155 193.490  0.00  0.00    +0.000 C 
BRANCH  53  54
ATOM     54  O17 UNK     0      41.524  15.498 193.351  0.00  0.00    +0.000 OA
ATOM     55  H86 UNK     0      41.339  15.432 192.399  0.00  0.00    +0.000 HD
ENDBRANCH  53  54
ENDBRANCH  44  53
ENDBRANCH  40  42
ENDBRANCH  35  40
BRANCH  33  56
ATOM     56  C39 UNK     0      37.232  17.576 190.859  0.00  0.00    +0.000 C 
BRANCH  56  57
ATOM     57  O14 UNK     0      37.941  17.419 189.643  0.00  0.00    +0.000 OA
ATOM     58  H83 UNK     0      37.303  17.548 188.921  0.00  0.00    +0.000 HD
ENDBRANCH  56  57
ENDBRANCH  33  56
ENDBRANCH   1  31
TORSDOF 22
REMARK  Name = HEMCA.pdb
REMARK  4 active torsions:
REMARK  status: ('A' for Active; 'I' for Inactive)
REMARK    1  A    between atoms: C5_5  and  O19_19
REMARK    2  A    between atoms: C6_6  and  O18_18
REMARK    3  A    between atoms: C7_7  and  O20_20
REMARK    4  A    between atoms: C17_17  and  O21_21
REMARK                            x       y       z     vdW  Elec       q    Type
REMARK                         _______ _______ _______ _____ _____    ______ ____
ROOT
ATOM      1  C1  UNK H   1      37.918  12.715 190.554  0.00  0.00    +0.000 A 
ATOM      2  C2  UNK H   1      38.775  11.993 191.277  0.00  0.00    +0.000 A 
ATOM      3  C3  UNK H   1      38.394  13.909 189.829  0.00  0.00    +0.000 A 
ATOM      4  C4  UNK H   1      40.180  12.391 191.362  0.00  0.00    +0.000 A 
ATOM      5  C5  UNK H   1      39.671  14.274 189.922  0.00  0.00    +0.000 A 
ATOM      6  C6  UNK H   1      40.604  13.482 190.725  0.00  0.00    +0.000 A 
ATOM      7  C7  UNK H   1      35.602  13.402 189.812  0.00  0.00    +0.000 C 
ATOM      8  C8  UNK H   1      36.485  12.418 190.461  0.00  0.00    +0.000 C 
ATOM      9  C9  UNK H   1      36.255  14.128 188.637  0.00  0.00    +0.000 C 
ATOM     10  O10 UNK H   1      37.524  14.645 189.025  0.00  0.00    +0.000 OA
ATOM     11  C11 UNK H   1      34.260  12.647 189.548  0.00  0.00    +0.000 C 
ATOM     12  C12 UNK H   1      34.405  11.581 190.596  0.00  0.00    +0.000 C 
ATOM     13  C13 UNK H   1      35.762  11.430 190.991  0.00  0.00    +0.000 C 
ATOM     14  C14 UNK H   1      33.449  10.761 191.015  0.00  0.00    +0.000 C 
ATOM     15  C15 UNK H   1      33.829   9.685 191.945  0.00  0.00    +0.000 C 
ATOM     16  C16 UNK H   1      36.189  10.316 191.835  0.00  0.00    +0.000 C 
ATOM     17  C17 UNK H   1      35.256   9.482 192.301  0.00  0.00    +0.000 C 
ATOM     18  O22 UNK H   1      32.968   8.916 192.385  0.00  0.00    +0.000 OA
ENDROOT
BRANCH   6  19
ATOM     19  O18 UNK H   1      41.940  13.860 190.810  0.00  0.00    +0.000 OA
ATOM     20  H9  UNK H   1      42.021  14.732 191.392  0.00  0.00    +0.000 HD
ENDBRANCH   6  19
BRANCH   5  21
ATOM     21  O19 UNK H   1      40.124  15.394 189.234  0.00  0.00    +0.000 OA
ATOM     22  H10 UNK H   1      40.288  15.145 188.228  0.00  0.00    +0.000 HD
ENDBRANCH   5  21
BRANCH   7  23
ATOM     23  O20 UNK H   1      35.363  14.352 190.852  0.00  0.00    +0.000 OA
ATOM     24  H11 UNK H   1      35.849  14.042 191.730  0.00  0.00    +0.000 HD
ENDBRANCH   7  23
BRANCH  17  25
ATOM     25  O21 UNK H   1      35.623   8.422 193.121  0.00  0.00    +0.000 OA
ATOM     26  H12 UNK H   1      34.835   7.729 193.171  0.00  0.00    +0.000 HD
ENDBRANCH  17  25
TORSDOF 4
ENDMDL
