MODEL 1
REMARK VINA RESULT:     0.000      0.000      0.000
REMARK INTER + INTRA:           0.000
REMARK INTER:                   0.000
REMARK INTRA:                   0.000
REMARK UNBOUND:                 0.000
REMARK  Name = Brazilin.pdb
REMARK  4 active torsions:
REMARK  status: ('A' for Active; 'I' for Inactive)
REMARK    1  A    between atoms: C3_3  and  O3_6
REMARK    2  A    between atoms: C4_4  and  O4_7
REMARK    3  A    between atoms: C10_10  and  O1_16
REMARK    4  A    between atoms: C19_19  and  O1_21
REMARK                            x       y       z     vdW  Elec       q    Type
REMARK                         _______ _______ _______ _____ _____    ______ ____
ROOT
ATOM      1 3C45 GLC     4      42.898  13.949 193.774  0.00  0.00    +0.000 A 
ATOM      2  C2  GLC     4      41.722  14.589 193.175  0.00  0.00    +0.000 A 
ATOM      3  C3  GLC     4      41.213  14.035 192.070  0.00  0.00    +0.000 A 
ATOM      4  C4  GLC     4      41.811  12.819 191.502  0.00  0.00    +0.000 A 
ATOM      5  C5  GLC     4      42.875  12.235 192.069  0.00  0.00    +0.000 A 
ATOM      6 3C45 GLC     4      43.438  12.852 193.255  0.00  0.00    +0.000 A 
ATOM      7  C9  GLC     4      44.680  12.477 194.058  0.00  0.00    +0.000 C 
ATOM      8  C10 GLC     4      44.258  13.024 195.385  0.00  0.00    +0.000 C 
ATOM      9  C11 GLC     4      43.711  14.411 194.962  0.00  0.00    +0.000 C 
ATOM     10  C12 GLC     4      45.387  12.975 196.409  0.00  0.00    +0.000 C 
ATOM     11  O13 GLC     4      45.763  11.602 196.545  0.00  0.00    +0.000 OA
ATOM     12  C14 GLC     4      45.725  10.702 195.527  0.00  0.00    +0.000 A 
ATOM     13  C15 GLC     4      45.178  11.070 194.208  0.00  0.00    +0.000 A 
ATOM     14  C17 GLC     4      45.173  10.170 193.229  0.00  0.00    +0.000 A 
ATOM     15  C18 GLC     4      45.693   8.832 193.485  0.00  0.00    +0.000 A 
ATOM     16  C19 GLC     4      46.177   8.515 194.684  0.00  0.00    +0.000 A 
ATOM     17  C20 GLC     4      46.196   9.482 195.743  0.00  0.00    +0.000 A 
ENDROOT
BRANCH   3  18
ATOM     18  O3  GLC     4      40.120  14.575 191.409  0.00  0.00    +0.000 OA
ATOM     19  H3  GLC     4      39.501  15.065 192.027  0.00  0.00    +0.000 HD
ENDBRANCH   3  18
BRANCH   4  20
ATOM     20  O4  GLC     4      41.250  12.306 190.358  0.00  0.00    +0.000 OA
ATOM     21  H4  GLC     4      41.090  13.059 189.689  0.00  0.00    +0.000 HD
ENDBRANCH   4  20
BRANCH   8  22
ATOM     22  O1  GLC     4      43.188  12.217 195.912  0.00  0.00    +0.000 OA
ATOM     23  H10 GLC     4      43.372  11.262 195.787  0.00  0.00    +0.000 HD
ENDBRANCH   8  22
BRANCH  16  24
ATOM     24  O1  GLC     4      46.661   7.271 194.916  0.00  0.00    +0.000 OA
ATOM     25  H14 GLC     4      46.271   6.687 194.275  0.00  0.00    +0.000 HD
ENDBRANCH  16  24
TORSDOF 4
ENDMDL
MODEL 2
REMARK VINA RESULT:     0.000      3.581      4.650
REMARK INTER + INTRA:           0.000
REMARK INTER:                   0.000
REMARK INTRA:                   0.000
REMARK UNBOUND:                 0.000
REMARK  Name = Brazilin.pdb
REMARK  4 active torsions:
REMARK  status: ('A' for Active; 'I' for Inactive)
REMARK    1  A    between atoms: C3_3  and  O3_6
REMARK    2  A    between atoms: C4_4  and  O4_7
REMARK    3  A    between atoms: C10_10  and  O1_16
REMARK    4  A    between atoms: C19_19  and  O1_21
REMARK                            x       y       z     vdW  Elec       q    Type
REMARK                         _______ _______ _______ _____ _____    ______ ____
ROOT
ATOM      1 3C45 GLC     4      46.037  15.046 194.014  0.00  0.00    +0.000 A 
ATOM      2  C2  GLC     4      46.545  15.396 192.683  0.00  0.00    +0.000 A 
ATOM      3  C3  GLC     4      46.085  14.695 191.643  0.00  0.00    +0.000 A 
ATOM      4  C4  GLC     4      45.094  13.628 191.842  0.00  0.00    +0.000 A 
ATOM      5  C5  GLC     4      44.626  13.330 193.061  0.00  0.00    +0.000 A 
ATOM      6 3C45 GLC     4      45.144  14.079 194.190  0.00  0.00    +0.000 A 
ATOM      7  C9  GLC     4      44.874  13.911 195.682  0.00  0.00    +0.000 C 
ATOM      8  C10 GLC     4      45.130  15.321 196.112  0.00  0.00    +0.000 C 
ATOM      9  C11 GLC     4      46.448  15.618 195.353  0.00  0.00    +0.000 C 
ATOM     10  C12 GLC     4      45.125  15.465 197.630  0.00  0.00    +0.000 C 
ATOM     11  O13 GLC     4      43.834  15.045 198.081  0.00  0.00    +0.000 OA
ATOM     12  C14 GLC     4      43.108  14.062 197.486  0.00  0.00    +0.000 A 
ATOM     13  C15 GLC     4      43.571  13.423 196.241  0.00  0.00    +0.000 A 
ATOM     14  C17 GLC     4      42.844  12.452 195.696  0.00  0.00    +0.000 A 
ATOM     15  C18 GLC     4      41.595  12.051 196.331  0.00  0.00    +0.000 A 
ATOM     16  C19 GLC     4      41.188  12.643 197.452  0.00  0.00    +0.000 A 
ATOM     17  C20 GLC     4      41.971  13.684 198.054  0.00  0.00    +0.000 A 
ENDROOT
BRANCH   3  18
ATOM     18  O3  GLC     4      46.520  14.926 190.346  0.00  0.00    +0.000 OA
ATOM     19  H3  GLC     4      46.793  15.878 190.196  0.00  0.00    +0.000 HD
ENDBRANCH   3  18
BRANCH   4  20
ATOM     20  O4  GLC     4      44.671  12.935 190.734  0.00  0.00    +0.000 OA
ATOM     21  H4  GLC     4      45.384  12.257 190.463  0.00  0.00    +0.000 HD
ENDBRANCH   4  20
BRANCH   8  22
ATOM     22  O1  GLC     4      44.077  16.167 195.613  0.00  0.00    +0.000 OA
ATOM     23  H10 GLC     4      44.198  16.356 194.659  0.00  0.00    +0.000 HD
ENDBRANCH   8  22
BRANCH  16  24
ATOM     24  O1  GLC     4      40.028  12.265 198.040  0.00  0.00    +0.000 OA
ATOM     25  H14 GLC     4      39.490  11.853 197.374  0.00  0.00    +0.000 HD
ENDBRANCH  16  24
TORSDOF 4
ENDMDL
MODEL 3
REMARK VINA RESULT:     0.000      2.820      4.455
REMARK INTER + INTRA:           0.000
REMARK INTER:                   0.000
REMARK INTRA:                   0.000
REMARK UNBOUND:                 0.000
REMARK  Name = Brazilin.pdb
REMARK  4 active torsions:
REMARK  status: ('A' for Active; 'I' for Inactive)
REMARK    1  A    between atoms: C3_3  and  O3_6
REMARK    2  A    between atoms: C4_4  and  O4_7
REMARK    3  A    between atoms: C10_10  and  O1_16
REMARK    4  A    between atoms: C19_19  and  O1_21
REMARK                            x       y       z     vdW  Elec       q    Type
REMARK                         _______ _______ _______ _____ _____    ______ ____
ROOT
ATOM      1 3C45 GLC     4      45.114  12.896 193.468  0.00  0.00    +0.000 A 
ATOM      2  C2  GLC     4      45.356  13.049 192.029  0.00  0.00    +0.000 A 
ATOM      3  C3  GLC     4      44.308  12.916 191.210  0.00  0.00    +0.000 A 
ATOM      4  C4  GLC     4      42.969  12.645 191.750  0.00  0.00    +0.000 A 
ATOM      5  C5  GLC     4      42.759  12.524 193.068  0.00  0.00    +0.000 A 
ATOM      6 3C45 GLC     4      43.902  12.648 193.952  0.00  0.00    +0.000 A 
ATOM      7  C9  GLC     4      43.993  12.473 195.465  0.00  0.00    +0.000 C 
ATOM      8  C10 GLC     4      45.162  13.371 195.720  0.00  0.00    +0.000 C 
ATOM      9  C11 GLC     4      46.124  12.915 194.593  0.00  0.00    +0.000 C 
ATOM     10  C12 GLC     4      45.648  13.279 197.163  0.00  0.00    +0.000 C 
ATOM     11  O13 GLC     4      44.549  13.663 197.994  0.00  0.00    +0.000 OA
ATOM     12  C14 GLC     4      43.248  13.408 197.695  0.00  0.00    +0.000 A 
ATOM     13  C15 GLC     4      42.871  12.797 196.406  0.00  0.00    +0.000 A 
ATOM     14  C17 GLC     4      41.590  12.544 196.154  0.00  0.00    +0.000 A 
ATOM     15  C18 GLC     4      40.583  12.892 197.148  0.00  0.00    +0.000 A 
ATOM     16  C19 GLC     4      40.940  13.450 198.303  0.00  0.00    +0.000 A 
ATOM     17  C20 GLC     4      42.320  13.716 198.590  0.00  0.00    +0.000 A 
ENDROOT
BRANCH   3  18
ATOM     18  O3  GLC     4      44.431  13.014 189.832  0.00  0.00    +0.000 OA
ATOM     19  H3  GLC     4      44.468  13.965 189.516  0.00  0.00    +0.000 HD
ENDBRANCH   3  18
BRANCH   4  20
ATOM     20  O4  GLC     4      41.936  12.505 190.855  0.00  0.00    +0.000 OA
ATOM     21  H4  GLC     4      42.243  12.805 189.930  0.00  0.00    +0.000 HD
ENDBRANCH   4  20
BRANCH   8  22
ATOM     22  O1  GLC     4      44.767  14.738 195.504  0.00  0.00    +0.000 OA
ATOM     23  H10 GLC     4      44.660  15.214 196.354  0.00  0.00    +0.000 HD
ENDBRANCH   8  22
BRANCH  16  24
ATOM     24  O1  GLC     4      40.000  13.769 199.225  0.00  0.00    +0.000 OA
ATOM     25  H14 GLC     4      40.265  14.585 199.634  0.00  0.00    +0.000 HD
ENDBRANCH  16  24
TORSDOF 4
ENDMDL
MODEL 4
REMARK VINA RESULT:     0.000      8.326     10.569
REMARK INTER + INTRA:           0.000
REMARK INTER:                   0.000
REMARK INTRA:                   0.000
REMARK UNBOUND:                 0.000
REMARK  Name = Brazilin.pdb
REMARK  4 active torsions:
REMARK  status: ('A' for Active; 'I' for Inactive)
REMARK    1  A    between atoms: C3_3  and  O3_6
REMARK    2  A    between atoms: C4_4  and  O4_7
REMARK    3  A    between atoms: C10_10  and  O1_16
REMARK    4  A    between atoms: C19_19  and  O1_21
REMARK                            x       y       z     vdW  Elec       q    Type
REMARK                         _______ _______ _______ _____ _____    ______ ____
ROOT
ATOM      1 3C45 GLC     4      38.585  20.634 192.976  0.00  0.00    +0.000 A 
ATOM      2  C2  GLC     4      39.295  20.708 191.695  0.00  0.00    +0.000 A 
ATOM      3  C3  GLC     4      39.873  19.590 191.245  0.00  0.00    +0.000 A 
ATOM      4  C4  GLC     4      39.775  18.339 192.009  0.00  0.00    +0.000 A 
ATOM      5  C5  GLC     4      39.109  18.282 193.170  0.00  0.00    +0.000 A 
ATOM      6 3C45 GLC     4      38.502  19.502 193.666  0.00  0.00    +0.000 A 
ATOM      7  C9  GLC     4      37.768  19.767 194.978  0.00  0.00    +0.000 C 
ATOM      8  C10 GLC     4      36.893  20.890 194.518  0.00  0.00    +0.000 C 
ATOM      9  C11 GLC     4      37.922  21.755 193.745  0.00  0.00    +0.000 C 
ATOM     10  C12 GLC     4      36.134  21.534 195.673  0.00  0.00    +0.000 C 
ATOM     11  O13 GLC     4      35.335  20.506 196.266  0.00  0.00    +0.000 OA
ATOM     12  C14 GLC     4      35.711  19.202 196.338  0.00  0.00    +0.000 A 
ATOM     13  C15 GLC     4      36.954  18.733 195.697  0.00  0.00    +0.000 A 
ATOM     14  C17 GLC     4      37.300  17.453 195.803  0.00  0.00    +0.000 A 
ATOM     15  C18 GLC     4      36.436  16.537 196.536  0.00  0.00    +0.000 A 
ATOM     16  C19 GLC     4      35.314  16.975 197.104  0.00  0.00    +0.000 A 
ATOM     17  C20 GLC     4      34.937  18.356 197.004  0.00  0.00    +0.000 A 
ENDROOT
BRANCH   3  18
ATOM     18  O3  GLC     4      40.591  19.557 190.059  0.00  0.00    +0.000 OA
ATOM     19  H3  GLC     4      40.306  20.271 189.416  0.00  0.00    +0.000 HD
ENDBRANCH   3  18
BRANCH   4  20
ATOM     20  O4  GLC     4      40.403  17.228 191.500  0.00  0.00    +0.000 OA
ATOM     21  H4  GLC     4      40.904  16.747 192.246  0.00  0.00    +0.000 HD
ENDBRANCH   4  20
BRANCH   8  22
ATOM     22  O1  GLC     4      35.902  20.378 193.607  0.00  0.00    +0.000 OA
ATOM     23  H10 GLC     4      36.263  19.639 193.073  0.00  0.00    +0.000 HD
ENDBRANCH   8  22
BRANCH  16  24
ATOM     24  O1  GLC     4      34.516  16.120 197.786  0.00  0.00    +0.000 OA
ATOM     25  H14 GLC     4      34.954  15.276 197.810  0.00  0.00    +0.000 HD
ENDBRANCH  16  24
TORSDOF 4
ENDMDL
MODEL 5
REMARK VINA RESULT:     0.000      8.805     10.477
REMARK INTER + INTRA:           0.000
REMARK INTER:                   0.000
REMARK INTRA:                   0.000
REMARK UNBOUND:                 0.000
REMARK  Name = Brazilin.pdb
REMARK  4 active torsions:
REMARK  status: ('A' for Active; 'I' for Inactive)
REMARK    1  A    between atoms: C3_3  and  O3_6
REMARK    2  A    between atoms: C4_4  and  O4_7
REMARK    3  A    between atoms: C10_10  and  O1_16
REMARK    4  A    between atoms: C19_19  and  O1_21
REMARK                            x       y       z     vdW  Elec       q    Type
REMARK                         _______ _______ _______ _____ _____    ______ ____
ROOT
ATOM      1 3C45 GLC     4      38.947  21.130 191.352  0.00  0.00    +0.000 A 
ATOM      2  C2  GLC     4      39.767  21.537 190.205  0.00  0.00    +0.000 A 
ATOM      3  C3  GLC     4      40.537  20.605 189.636  0.00  0.00    +0.000 A 
ATOM      4  C4  GLC     4      40.536  19.226 190.142  0.00  0.00    +0.000 A 
ATOM      5  C5  GLC     4      39.770  18.864 191.179  0.00  0.00    +0.000 A 
ATOM      6 3C45 GLC     4      38.952  19.882 191.808  0.00  0.00    +0.000 A 
ATOM      7  C9  GLC     4      38.058  19.797 193.042  0.00  0.00    +0.000 C 
ATOM      8  C10 GLC     4      37.088  20.879 192.687  0.00  0.00    +0.000 C 
ATOM      9  C11 GLC     4      38.060  21.994 192.221  0.00  0.00    +0.000 C 
ATOM     10  C12 GLC     4      36.133  21.190 193.835  0.00  0.00    +0.000 C 
ATOM     11  O13 GLC     4      35.428  19.979 194.124  0.00  0.00    +0.000 OA
ATOM     12  C14 GLC     4      35.971  18.740 194.005  0.00  0.00    +0.000 A 
ATOM     13  C15 GLC     4      37.326  18.554 193.452  0.00  0.00    +0.000 A 
ATOM     14  C17 GLC     4      37.834  17.328 193.366  0.00  0.00    +0.000 A 
ATOM     15  C18 GLC     4      37.035  16.190 193.805  0.00  0.00    +0.000 A 
ATOM     16  C19 GLC     4      35.811  16.375 194.296  0.00  0.00    +0.000 A 
ATOM     17  C20 GLC     4      35.258  17.695 194.402  0.00  0.00    +0.000 A 
ENDROOT
BRANCH   3  18
ATOM     18  O3  GLC     4      41.371  20.890 188.565  0.00  0.00    +0.000 OA
ATOM     19  H3  GLC     4      41.056  21.678 188.032  0.00  0.00    +0.000 HD
ENDBRANCH   3  18
BRANCH   4  20
ATOM     20  O4  GLC     4      41.361  18.318 189.522  0.00  0.00    +0.000 OA
ATOM     21  H4  GLC     4      42.034  18.812 188.937  0.00  0.00    +0.000 HD
ENDBRANCH   4  20
BRANCH   8  22
ATOM     22  O1  GLC     4      36.276  20.444 191.580  0.00  0.00    +0.000 OA
ATOM     23  H10 GLC     4      35.361  20.243 191.871  0.00  0.00    +0.000 HD
ENDBRANCH   8  22
BRANCH  16  24
ATOM     24  O1  GLC     4      35.073  15.315 194.704  0.00  0.00    +0.000 OA
ATOM     25  H14 GLC     4      34.264  15.653 195.072  0.00  0.00    +0.000 HD
ENDBRANCH  16  24
TORSDOF 4
ENDMDL
MODEL 6
REMARK VINA RESULT:     0.000      7.847      9.761
REMARK INTER + INTRA:           0.000
REMARK INTER:                   0.000
REMARK INTRA:                   0.000
REMARK UNBOUND:                 0.000
REMARK  Name = Brazilin.pdb
REMARK  4 active torsions:
REMARK  status: ('A' for Active; 'I' for Inactive)
REMARK    1  A    between atoms: C3_3  and  O3_6
REMARK    2  A    between atoms: C4_4  and  O4_7
REMARK    3  A    between atoms: C10_10  and  O1_16
REMARK    4  A    between atoms: C19_19  and  O1_21
REMARK                            x       y       z     vdW  Elec       q    Type
REMARK                         _______ _______ _______ _____ _____    ______ ____
ROOT
ATOM      1 3C45 GLC     4      40.409  21.835 192.637  0.00  0.00    +0.000 A 
ATOM      2  C2  GLC     4      40.686  22.105 191.222  0.00  0.00    +0.000 A 
ATOM      3  C3  GLC     4      41.188  21.105 190.491  0.00  0.00    +0.000 A 
ATOM      4  C4  GLC     4      41.430  19.788 191.094  0.00  0.00    +0.000 A 
ATOM      5  C5  GLC     4      41.157  19.550 192.383  0.00  0.00    +0.000 A 
ATOM      6 3C45 GLC     4      40.633  20.643 193.179  0.00  0.00    +0.000 A 
ATOM      7  C9  GLC     4      40.314  20.703 194.670  0.00  0.00    +0.000 C 
ATOM      8  C10 GLC     4      39.253  21.756 194.627  0.00  0.00    +0.000 C 
ATOM      9  C11 GLC     4      39.922  22.799 193.696  0.00  0.00    +0.000 C 
ATOM     10  C12 GLC     4      38.833  22.201 196.024  0.00  0.00    +0.000 C 
ATOM     11  O13 GLC     4      38.339  21.040 196.697  0.00  0.00    +0.000 OA
ATOM     12  C14 GLC     4      38.824  19.786 196.497  0.00  0.00    +0.000 A 
ATOM     13  C15 GLC     4      39.846  19.522 195.467  0.00  0.00    +0.000 A 
ATOM     14  C17 GLC     4      40.311  18.286 195.312  0.00  0.00    +0.000 A 
ATOM     15  C18 GLC     4      39.790  17.214 196.150  0.00  0.00    +0.000 A 
ATOM     16  C19 GLC     4      38.862  17.469 197.071  0.00  0.00    +0.000 A 
ATOM     17  C20 GLC     4      38.362  18.801 197.254  0.00  0.00    +0.000 A 
ENDROOT
BRANCH   3  18
ATOM     18  O3  GLC     4      41.511  21.262 189.151  0.00  0.00    +0.000 OA
ATOM     19  H3  GLC     4      40.986  21.994 188.712  0.00  0.00    +0.000 HD
ENDBRANCH   3  18
BRANCH   4  20
ATOM     20  O4  GLC     4      41.961  18.807 190.291  0.00  0.00    +0.000 OA
ATOM     21  H4  GLC     4      42.251  18.016 190.866  0.00  0.00    +0.000 HD
ENDBRANCH   4  20
BRANCH   8  22
ATOM     22  O1  GLC     4      38.077  21.218 193.994  0.00  0.00    +0.000 OA
ATOM     23  H10 GLC     4      38.290  20.411 193.480  0.00  0.00    +0.000 HD
ENDBRANCH   8  22
BRANCH  16  24
ATOM     24  O1  GLC     4      38.382  16.470 197.850  0.00  0.00    +0.000 OA
ATOM     25  H14 GLC     4      37.781  16.857 198.476  0.00  0.00    +0.000 HD
ENDBRANCH  16  24
TORSDOF 4
ENDMDL
MODEL 7
REMARK VINA RESULT:     0.000      6.571      9.218
REMARK INTER + INTRA:           0.000
REMARK INTER:                   0.000
REMARK INTRA:                   0.000
REMARK UNBOUND:                 0.000
REMARK  Name = Brazilin.pdb
REMARK  4 active torsions:
REMARK  status: ('A' for Active; 'I' for Inactive)
REMARK    1  A    between atoms: C3_3  and  O3_6
REMARK    2  A    between atoms: C4_4  and  O4_7
REMARK    3  A    between atoms: C10_10  and  O1_16
REMARK    4  A    between atoms: C19_19  and  O1_21
REMARK                            x       y       z     vdW  Elec       q    Type
REMARK                         _______ _______ _______ _____ _____    ______ ____
ROOT
ATOM      1 3C45 GLC     4      39.836  22.385 192.629  0.00  0.00    +0.000 A 
ATOM      2  C2  GLC     4      39.404  23.368 191.629  0.00  0.00    +0.000 A 
ATOM      3  C3  GLC     4      39.851  23.213 190.379  0.00  0.00    +0.000 A 
ATOM      4  C4  GLC     4      40.726  22.085 190.034  0.00  0.00    +0.000 A 
ATOM      5  C5  GLC     4      41.099  21.185 190.953  0.00  0.00    +0.000 A 
ATOM      6 3C45 GLC     4      40.631  21.369 192.313  0.00  0.00    +0.000 A 
ATOM      7  C9  GLC     4      40.954  20.574 193.575  0.00  0.00    +0.000 C 
ATOM      8  C10 GLC     4      39.694  20.846 194.335  0.00  0.00    +0.000 C 
ATOM      9  C11 GLC     4      39.550  22.374 194.114  0.00  0.00    +0.000 C 
ATOM     10  C12 GLC     4      39.768  20.329 195.768  0.00  0.00    +0.000 C 
ATOM     11  O13 GLC     4      39.994  18.919 195.687  0.00  0.00    +0.000 OA
ATOM     12  C14 GLC     4      40.726  18.324 194.709  0.00  0.00    +0.000 A 
ATOM     13  C15 GLC     4      41.258  19.106 193.577  0.00  0.00    +0.000 A 
ATOM     14  C17 GLC     4      41.985  18.495 192.646  0.00  0.00    +0.000 A 
ATOM     15  C18 GLC     4      42.227  17.062 192.754  0.00  0.00    +0.000 A 
ATOM     16  C19 GLC     4      41.733  16.369 193.779  0.00  0.00    +0.000 A 
ATOM     17  C20 GLC     4      40.956  17.022 194.794  0.00  0.00    +0.000 A 
ENDROOT
BRANCH   3  18
ATOM     18  O3  GLC     4      39.525  24.101 189.364  0.00  0.00    +0.000 OA
ATOM     19  H3  GLC     4      38.662  24.581 189.536  0.00  0.00    +0.000 HD
ENDBRANCH   3  18
BRANCH   4  20
ATOM     20  O4  GLC     4      41.161  21.990 188.734  0.00  0.00    +0.000 OA
ATOM     21  H4  GLC     4      41.292  21.008 188.489  0.00  0.00    +0.000 HD
ENDBRANCH   4  20
BRANCH   8  22
ATOM     22  O1  GLC     4      38.600  20.155 193.703  0.00  0.00    +0.000 OA
ATOM     23  H10 GLC     4      38.925  19.422 193.138  0.00  0.00    +0.000 HD
ENDBRANCH   8  22
BRANCH  16  24
ATOM     24  O1  GLC     4      41.962  15.038 193.876  0.00  0.00    +0.000 OA
ATOM     25  H14 GLC     4      42.149  14.715 193.001  0.00  0.00    +0.000 HD
ENDBRANCH  16  24
TORSDOF 4
ENDMDL
MODEL 8
REMARK VINA RESULT:     0.000     11.139     12.254
REMARK INTER + INTRA:           0.000
REMARK INTER:                   0.000
REMARK INTRA:                   0.000
REMARK UNBOUND:                 0.000
REMARK  Name = Brazilin.pdb
REMARK  4 active torsions:
REMARK  status: ('A' for Active; 'I' for Inactive)
REMARK    1  A    between atoms: C3_3  and  O3_6
REMARK    2  A    between atoms: C4_4  and  O4_7
REMARK    3  A    between atoms: C10_10  and  O1_16
REMARK    4  A    between atoms: C19_19  and  O1_21
REMARK                            x       y       z     vdW  Elec       q    Type
REMARK                         _______ _______ _______ _____ _____    ______ ____
ROOT
ATOM      1 3C45 GLC     4      35.885  15.984 202.742  0.00  0.00    +0.000 A 
ATOM      2  C2  GLC     4      34.769  16.927 202.868  0.00  0.00    +0.000 A 
ATOM      3  C3  GLC     4      33.540  16.416 202.985  0.00  0.00    +0.000 A 
ATOM      4  C4  GLC     4      33.335  14.962 203.003  0.00  0.00    +0.000 A 
ATOM      5  C5  GLC     4      34.365  14.111 202.904  0.00  0.00    +0.000 A 
ATOM      6 3C45 GLC     4      35.695  14.669 202.756  0.00  0.00    +0.000 A 
ATOM      7  C9  GLC     4      37.032  13.967 202.535  0.00  0.00    +0.000 C 
ATOM      8  C10 GLC     4      37.926  14.998 203.148  0.00  0.00    +0.000 C 
ATOM      9  C11 GLC     4      37.349  16.291 202.516  0.00  0.00    +0.000 C 
ATOM     10  C12 GLC     4      39.401  14.682 202.923  0.00  0.00    +0.000 C 
ATOM     11  O13 GLC     4      39.646  13.407 203.521  0.00  0.00    +0.000 OA
ATOM     12  C14 GLC     4      38.732  12.402 203.564  0.00  0.00    +0.000 A 
ATOM     13  C15 GLC     4      37.355  12.607 203.077  0.00  0.00    +0.000 A 
ATOM     14  C17 GLC     4      36.491  11.596 203.117  0.00  0.00    +0.000 A 
ATOM     15  C18 GLC     4      36.918  10.312 203.656  0.00  0.00    +0.000 A 
ATOM     16  C19 GLC     4      38.163  10.146 204.098  0.00  0.00    +0.000 A 
ATOM     17  C20 GLC     4      39.106  11.227 204.049  0.00  0.00    +0.000 A 
ENDROOT
BRANCH   3  18
ATOM     18  O3  GLC     4      32.413  17.219 203.082  0.00  0.00    +0.000 OA
ATOM     19  H3  GLC     4      31.590  16.771 202.727  0.00  0.00    +0.000 HD
ENDBRANCH   3  18
BRANCH   4  20
ATOM     20  O4  GLC     4      32.045  14.500 203.111  0.00  0.00    +0.000 OA
ATOM     21  H4  GLC     4      31.590  14.943 203.909  0.00  0.00    +0.000 HD
ENDBRANCH   4  20
BRANCH   8  22
ATOM     22  O1  GLC     4      37.721  15.016 204.573  0.00  0.00    +0.000 OA
ATOM     23  H10 GLC     4      38.244  14.315 205.015  0.00  0.00    +0.000 HD
ENDBRANCH   8  22
BRANCH  16  24
ATOM     24  O1  GLC     4      38.556   8.949 204.597  0.00  0.00    +0.000 OA
ATOM     25  H14 GLC     4      38.896   9.100 205.472  0.00  0.00    +0.000 HD
ENDBRANCH  16  24
TORSDOF 4
ENDMDL
MODEL 9
REMARK VINA RESULT:     0.000     10.168     11.505
REMARK INTER + INTRA:           0.000
REMARK INTER:                   0.000
REMARK INTRA:                   0.000
REMARK UNBOUND:                 0.000
REMARK  Name = Brazilin.pdb
REMARK  4 active torsions:
REMARK  status: ('A' for Active; 'I' for Inactive)
REMARK    1  A    between atoms: C3_3  and  O3_6
REMARK    2  A    between atoms: C4_4  and  O4_7
REMARK    3  A    between atoms: C10_10  and  O1_16
REMARK    4  A    between atoms: C19_19  and  O1_21
REMARK                            x       y       z     vdW  Elec       q    Type
REMARK                         _______ _______ _______ _____ _____    ______ ____
ROOT
ATOM      1 3C45 GLC     4      35.861  16.910 201.973  0.00  0.00    +0.000 A 
ATOM      2  C2  GLC     4      35.018  17.763 202.819  0.00  0.00    +0.000 A 
ATOM      3  C3  GLC     4      33.891  17.232 203.301  0.00  0.00    +0.000 A 
ATOM      4  C4  GLC     4      33.534  15.839 203.001  0.00  0.00    +0.000 A 
ATOM      5  C5  GLC     4      34.321  15.066 202.241  0.00  0.00    +0.000 A 
ATOM      6 3C45 GLC     4      35.532  15.652 201.701  0.00  0.00    +0.000 A 
ATOM      7  C9  GLC     4      36.565  15.061 200.746  0.00  0.00    +0.000 C 
ATOM      8  C10 GLC     4      37.751  15.863 201.179  0.00  0.00    +0.000 C 
ATOM      9  C11 GLC     4      37.130  17.282 201.239  0.00  0.00    +0.000 C 
ATOM     10  C12 GLC     4      38.955  15.641 200.269  0.00  0.00    +0.000 C 
ATOM     11  O13 GLC     4      39.264  14.246 200.325  0.00  0.00    +0.000 OA
ATOM     12  C14 GLC     4      38.330  13.269 200.473  0.00  0.00    +0.000 A 
ATOM     13  C15 GLC     4      36.911  13.602 200.698  0.00  0.00    +0.000 A 
ATOM     14  C17 GLC     4      36.022  12.621 200.820  0.00  0.00    +0.000 A 
ATOM     15  C18 GLC     4      36.470  11.236 200.746  0.00  0.00    +0.000 A 
ATOM     16  C19 GLC     4      37.756  10.953 200.550  0.00  0.00    +0.000 A 
ATOM     17  C20 GLC     4      38.722  12.004 200.406  0.00  0.00    +0.000 A 
ENDROOT
BRANCH   3  18
ATOM     18  O3  GLC     4      33.010  17.959 204.088  0.00  0.00    +0.000 OA
ATOM     19  H3  GLC     4      32.150  17.472 204.253  0.00  0.00    +0.000 HD
ENDBRANCH   3  18
BRANCH   4  20
ATOM     20  O4  GLC     4      32.355  15.357 203.516  0.00  0.00    +0.000 OA
ATOM     21  H4  GLC     4      32.231  14.385 203.232  0.00  0.00    +0.000 HD
ENDBRANCH   4  20
BRANCH   8  22
ATOM     22  O1  GLC     4      38.149  15.447 202.499  0.00  0.00    +0.000 OA
ATOM     23  H10 GLC     4      38.551  14.553 202.480  0.00  0.00    +0.000 HD
ENDBRANCH   8  22
BRANCH  16  24
ATOM     24  O1  GLC     4      38.167   9.665 200.480  0.00  0.00    +0.000 OA
ATOM     25  H14 GLC     4      38.287   9.451 199.561  0.00  0.00    +0.000 HD
ENDBRANCH  16  24
TORSDOF 4
ENDMDL
