MODEL 1
REMARK VINA RESULT:    -1.772      0.000      0.000
REMARK INTER + INTRA:          -5.218
REMARK INTER:                  -3.118
REMARK INTRA:                  -2.100
REMARK UNBOUND:                -2.100
REMARK  7 active torsions:
REMARK  status: ('A' for Active; 'I' for Inactive)
REMARK    1  A    between atoms: N2_1  and  C1_2 
REMARK    2  A    between atoms: C1_2  and  C2_3 
REMARK    3  A    between atoms: C2_3  and  C3_4 
REMARK       I    between atoms: C3_4  and  N1_6 
REMARK    4  A    between atoms: N1_6  and  C4_7 
REMARK    5  A    between atoms: C4_7  and  C13_8 
REMARK    6  A    between atoms: C4_7  and  C5_10 
REMARK    7  A    between atoms: C13_8  and  C7_9 
ROOT
HETATM    1  N2  BES   501      33.596   8.499 191.065  1.00  0.00    -0.079 N 
HETATM    2  H1  BES   501      33.629   7.594 190.496  1.00  0.00     0.274 HD
HETATM    3  H2  BES   501      34.563   8.957 191.063  1.00  0.00     0.274 HD
HETATM    4  H1  BES   501      32.884   9.168 190.627  1.00  0.00     0.274 HD
ENDROOT
BRANCH   1   5
HETATM    5  C1  BES   501      33.197   8.195 192.453  1.00  0.00     0.238 C 
BRANCH   5   6
HETATM    6  C2  BES   501      34.234   8.581 193.463  1.00  0.00     0.123 C 
BRANCH   6   7
HETATM    7  C3  BES   501      35.469   9.040 192.744  1.00  0.00     0.199 C 
HETATM    8  O3  BES   501      36.329   8.215 192.532  1.00  0.00    -0.280 OA
HETATM    9  N1  BES   501      35.576  10.446 192.332  1.00  0.00    -0.248 NA
HETATM   10  H7  BES   501      35.468  11.019 193.230  1.00  0.00     0.131 HD
BRANCH   9  11
HETATM   11  C4  BES   501      36.727  11.022 191.637  1.00  0.00     0.169 C 
BRANCH  11  12
HETATM   12  C13 BES   501      36.495  10.965 190.124  1.00  0.00     0.089 C 
BRANCH  12  13
HETATM   13  C7  BES   501      37.348   9.851 189.488  1.00  0.00     0.031 A 
HETATM   14  C21 BES   501      36.845   8.461 189.053  1.00  0.00     0.143 A 
HETATM   15  N22 BES   501      38.039   7.683 188.474  1.00  0.00    -0.254 N 
HETATM   16  C23 BES   501      39.282   8.590 188.550  1.00  0.00     0.209 A 
HETATM   17  N24 BES   501      38.854   9.930 189.177  1.00  0.00    -0.348 N 
HETATM   18  C1  BES   501      39.760  11.121 189.442  1.00  0.00     0.157 C 
ENDBRANCH  12  13
ENDBRANCH  11  12
BRANCH  11  19
HETATM   19  C5  BES   501      36.830  12.453 192.049  1.00  0.00     0.192 C 
HETATM   20  O1  BES   501      35.843  13.011 192.602  1.00  0.00    -0.647 OA
HETATM   21  O4  BES   501      37.944  13.035 191.859  1.00  0.00    -0.647 OA
ENDBRANCH  11  19
ENDBRANCH   9  11
ENDBRANCH   6   7
ENDBRANCH   5   6
ENDBRANCH   1   5
TORSDOF 7
REMARK  7 active torsions:
REMARK  status: ('A' for Active; 'I' for Inactive)
REMARK    1  A    between atoms: N2_1  and  C1_2 
REMARK    2  A    between atoms: C1_2  and  C2_3 
REMARK    3  A    between atoms: C2_3  and  C3_4 
REMARK       I    between atoms: C3_4  and  N1_6 
REMARK    4  A    between atoms: N1_6  and  C4_7 
REMARK    5  A    between atoms: C4_7  and  C13_8 
REMARK    6  A    between atoms: C4_7  and  C5_10 
REMARK    7  A    between atoms: C13_8  and  C7_9 
ROOT
HETATM    1  N2  BES   501      33.557  12.028 194.260  1.00  0.00    -0.079 N 
HETATM    2  H12 BES   501      34.493  12.063 193.743  1.00  0.00     0.274 HD
HETATM    3  H13 BES   501      32.760  12.165 193.560  1.00  0.00     0.274 HD
HETATM    4  H2  BES   501      33.450  11.078 194.740  1.00  0.00     0.274 HD
ENDROOT
BRANCH   1   5
HETATM    5  C1  BES   501      33.514  13.072 195.246  1.00  0.00     0.238 C 
BRANCH   5   6
HETATM    6  C2  BES   501      32.957  14.347 194.652  1.00  0.00     0.123 C 
BRANCH   6   7
HETATM    7  C3  BES   501      32.345  14.067 193.291  1.00  0.00     0.199 C 
HETATM    8  O3  BES   501      31.161  13.774 193.176  1.00  0.00    -0.280 OA
HETATM    9  N1  BES   501      33.218  14.113 192.112  1.00  0.00    -0.248 NA
HETATM   10  H7  BES   501      33.994  13.395 192.274  1.00  0.00     0.131 HD
BRANCH   9  11
HETATM   11  C4  BES   501      32.666  13.847 190.768  1.00  0.00     0.169 C 
BRANCH  11  12
HETATM   12  C13 BES   501      33.116  14.921 189.776  1.00  0.00     0.091 C 
BRANCH  12  13
HETATM   13  C7  BES   501      34.613  15.224 189.967  1.00  0.00     0.053 A 
HETATM   14  C14 BES   501      35.777  14.536 189.228  1.00  0.00     0.116 A 
HETATM   15  N15 BES   501      37.094  15.153 189.733  1.00  0.00    -0.359 N 
HETATM   16  C16 BES   501      36.744  16.224 190.785  1.00  0.00     0.207 A 
HETATM   17  H13 BES   501      38.079  14.887 189.411  1.00  0.00     0.166 HD
HETATM   18  N17 BES   501      35.212  16.267 190.928  1.00  0.00    -0.247 N 
ENDBRANCH  12  13
ENDBRANCH  11  12
BRANCH  11  19
HETATM   19  C5  BES   501      32.985  12.433 190.309  1.00  0.00     0.192 C 
HETATM   20  O1  BES   501      33.094  12.175 189.081  1.00  0.00    -0.647 OA
HETATM   21  O4  BES   501      33.158  11.512 191.152  1.00  0.00    -0.647 OA
ENDBRANCH  11  19
ENDBRANCH   9  11
ENDBRANCH   6   7
ENDBRANCH   5   6
ENDBRANCH   1   5
TORSDOF 7
ENDMDL
MODEL 2
REMARK VINA RESULT:    -1.708      5.710      8.298
REMARK INTER + INTRA:          -5.106
REMARK INTER:                  -2.793
REMARK INTRA:                  -2.313
REMARK UNBOUND:                -2.100
REMARK  7 active torsions:
REMARK  status: ('A' for Active; 'I' for Inactive)
REMARK    1  A    between atoms: N2_1  and  C1_2 
REMARK    2  A    between atoms: C1_2  and  C2_3 
REMARK    3  A    between atoms: C2_3  and  C3_4 
REMARK       I    between atoms: C3_4  and  N1_6 
REMARK    4  A    between atoms: N1_6  and  C4_7 
REMARK    5  A    between atoms: C4_7  and  C13_8 
REMARK    6  A    between atoms: C4_7  and  C5_10 
REMARK    7  A    between atoms: C13_8  and  C7_9 
ROOT
HETATM    1  N2  BES   501      38.454  16.805 199.703  1.00  0.00    -0.079 N 
HETATM    2  H1  BES   501      38.067  17.754 200.012  1.00  0.00     0.274 HD
HETATM    3  H2  BES   501      38.689  16.839 198.659  1.00  0.00     0.274 HD
HETATM    4  H1  BES   501      39.341  16.586 200.260  1.00  0.00     0.274 HD
ENDROOT
BRANCH   1   5
HETATM    5  C1  BES   501      37.446  15.756 199.948  1.00  0.00     0.238 C 
BRANCH   5   6
HETATM    6  C2  BES   501      37.522  14.624 198.971  1.00  0.00     0.123 C 
BRANCH   6   7
HETATM    7  C3  BES   501      38.840  14.685 198.255  1.00  0.00     0.199 C 
HETATM    8  O3  BES   501      39.760  14.057 198.728  1.00  0.00    -0.280 OA
HETATM    9  N1  BES   501      38.952  15.486 197.029  1.00  0.00    -0.248 NA
HETATM   10  H7  BES   501      38.666  16.480 197.306  1.00  0.00     0.131 HD
BRANCH   9  11
HETATM   11  C4  BES   501      40.178  15.637 196.244  1.00  0.00     0.169 C 
BRANCH  11  12
HETATM   12  C13 BES   501      39.863  15.450 194.757  1.00  0.00     0.089 C 
BRANCH  12  13
HETATM   13  C7  BES   501      39.111  14.126 194.526  1.00  0.00     0.031 A 
HETATM   14  C21 BES   501      39.655  12.714 194.811  1.00  0.00     0.143 A 
HETATM   15  N22 BES   501      38.564  11.698 194.430  1.00  0.00    -0.254 N 
HETATM   16  C23 BES   501      37.343  12.481 193.910  1.00  0.00     0.209 A 
HETATM   17  N24 BES   501      37.683  13.982 193.970  1.00  0.00    -0.348 N 
HETATM   18  C1  BES   501      36.767  15.122 193.552  1.00  0.00     0.157 C 
ENDBRANCH  12  13
ENDBRANCH  11  12
BRANCH  11  19
HETATM   19  C5  BES   501      40.677  17.029 196.455  1.00  0.00     0.192 C 
HETATM   20  O1  BES   501      41.785  17.371 195.959  1.00  0.00    -0.647 OA
HETATM   21  O4  BES   501      39.924  17.826 197.098  1.00  0.00    -0.647 OA
ENDBRANCH  11  19
ENDBRANCH   9  11
ENDBRANCH   6   7
ENDBRANCH   5   6
ENDBRANCH   1   5
TORSDOF 7
REMARK  7 active torsions:
REMARK  status: ('A' for Active; 'I' for Inactive)
REMARK    1  A    between atoms: N2_1  and  C1_2 
REMARK    2  A    between atoms: C1_2  and  C2_3 
REMARK    3  A    between atoms: C2_3  and  C3_4 
REMARK       I    between atoms: C3_4  and  N1_6 
REMARK    4  A    between atoms: N1_6  and  C4_7 
REMARK    5  A    between atoms: C4_7  and  C13_8 
REMARK    6  A    between atoms: C4_7  and  C5_10 
REMARK    7  A    between atoms: C13_8  and  C7_9 
ROOT
HETATM    1  N2  BES   501      39.508  20.176 195.102  1.00  0.00    -0.079 N 
HETATM    2  H12 BES   501      38.508  20.555 195.085  1.00  0.00     0.274 HD
HETATM    3  H13 BES   501      40.193  20.986 195.235  1.00  0.00     0.274 HD
HETATM    4  H2  BES   501      39.613  19.484 195.911  1.00  0.00     0.274 HD
ENDROOT
BRANCH   1   5
HETATM    5  C1  BES   501      39.790  19.509 193.861  1.00  0.00     0.238 C 
BRANCH   5   6
HETATM    6  C2  BES   501      38.630  18.628 193.450  1.00  0.00     0.123 C 
BRANCH   6   7
HETATM    7  C3  BES   501      37.443  18.866 194.366  1.00  0.00     0.199 C 
HETATM    8  O3  BES   501      36.591  19.704 194.096  1.00  0.00    -0.280 OA
HETATM    9  N1  BES   501      37.358  18.093 195.610  1.00  0.00    -0.248 NA
HETATM   10  H7  BES   501      38.246  18.306 196.167  1.00  0.00     0.131 HD
BRANCH   9  11
HETATM   11  C4  BES   501      36.221  18.291 196.532  1.00  0.00     0.169 C 
BRANCH  11  12
HETATM   12  C13 BES   501      35.583  16.950 196.901  1.00  0.00     0.091 C 
BRANCH  12  13
HETATM   13  C7  BES   501      34.414  16.640 195.948  1.00  0.00     0.053 A 
HETATM   14  C14 BES   501      33.786  17.619 194.938  1.00  0.00     0.116 A 
HETATM   15  N15 BES   501      32.652  16.882 194.202  1.00  0.00    -0.359 N 
HETATM   16  C16 BES   501      32.580  15.446 194.757  1.00  0.00     0.207 A 
HETATM   17  H13 BES   501      32.024  17.294 193.439  1.00  0.00     0.166 HD
HETATM   18  N17 BES   501      33.669  15.298 195.835  1.00  0.00    -0.247 N 
ENDBRANCH  12  13
ENDBRANCH  11  12
BRANCH  11  19
HETATM   19  C5  BES   501      36.626  19.118 197.742  1.00  0.00     0.192 C 
HETATM   20  O1  BES   501      36.153  18.851 198.879  1.00  0.00    -0.647 OA
HETATM   21  O4  BES   501      37.448  20.065 197.621  1.00  0.00    -0.647 OA
ENDBRANCH  11  19
ENDBRANCH   9  11
ENDBRANCH   6   7
ENDBRANCH   5   6
ENDBRANCH   1   5
TORSDOF 7
ENDMDL
MODEL 3
REMARK VINA RESULT:    -1.677      8.072     10.827
REMARK INTER + INTRA:          -5.051
REMARK INTER:                  -3.053
REMARK INTRA:                  -1.998
REMARK UNBOUND:                -2.100
REMARK  7 active torsions:
REMARK  status: ('A' for Active; 'I' for Inactive)
REMARK    1  A    between atoms: N2_1  and  C1_2 
REMARK    2  A    between atoms: C1_2  and  C2_3 
REMARK    3  A    between atoms: C2_3  and  C3_4 
REMARK       I    between atoms: C3_4  and  N1_6 
REMARK    4  A    between atoms: N1_6  and  C4_7 
REMARK    5  A    between atoms: C4_7  and  C13_8 
REMARK    6  A    between atoms: C4_7  and  C5_10 
REMARK    7  A    between atoms: C13_8  and  C7_9 
ROOT
HETATM    1  N2  BES   501      40.657  11.869 202.361  1.00  0.00    -0.079 N 
HETATM    2  H1  BES   501      39.612  12.086 202.433  1.00  0.00     0.274 HD
HETATM    3  H2  BES   501      41.040  12.264 201.444  1.00  0.00     0.274 HD
HETATM    4  H1  BES   501      41.171  12.319 203.185  1.00  0.00     0.274 HD
ENDROOT
BRANCH   1   5
HETATM    5  C1  BES   501      40.860  10.408 202.392  1.00  0.00     0.238 C 
BRANCH   5   6
HETATM    6  C2  BES   501      40.140   9.688 201.294  1.00  0.00     0.123 C 
BRANCH   6   7
HETATM    7  C3  BES   501      39.162  10.630 200.653  1.00  0.00     0.199 C 
HETATM    8  O3  BES   501      38.075  10.742 201.173  1.00  0.00    -0.280 OA
HETATM    9  N1  BES   501      39.562  11.364 199.445  1.00  0.00    -0.248 NA
HETATM   10  H7  BES   501      39.838  10.616 198.731  1.00  0.00     0.131 HD
BRANCH   9  11
HETATM   11  C4  BES   501      38.703  12.300 198.720  1.00  0.00     0.169 C 
BRANCH  11  12
HETATM   12  C13 BES   501      39.393  13.664 198.625  1.00  0.00     0.089 C 
BRANCH  12  13
HETATM   13  C7  BES   501      39.254  14.434 199.952  1.00  0.00     0.031 A 
HETATM   14  C21 BES   501      38.090  14.308 200.953  1.00  0.00     0.143 A 
HETATM   15  N22 BES   501      38.370  15.261 202.129  1.00  0.00    -0.254 N 
HETATM   16  C23 BES   501      39.707  15.975 201.857  1.00  0.00     0.209 A 
HETATM   17  N24 BES   501      40.252  15.463 200.511  1.00  0.00    -0.348 N 
HETATM   18  C1  BES   501      41.551  15.899 199.849  1.00  0.00     0.157 C 
ENDBRANCH  12  13
ENDBRANCH  11  12
BRANCH  11  19
HETATM   19  C5  BES   501      38.519  11.762 197.339  1.00  0.00     0.192 C 
HETATM   20  O1  BES   501      39.076  12.344 196.368  1.00  0.00    -0.647 OA
HETATM   21  O4  BES   501      37.833  10.700 197.215  1.00  0.00    -0.647 OA
ENDBRANCH  11  19
ENDBRANCH   9  11
ENDBRANCH   6   7
ENDBRANCH   5   6
ENDBRANCH   1   5
TORSDOF 7
REMARK  7 active torsions:
REMARK  status: ('A' for Active; 'I' for Inactive)
REMARK    1  A    between atoms: N2_1  and  C1_2 
REMARK    2  A    between atoms: C1_2  and  C2_3 
REMARK    3  A    between atoms: C2_3  and  C3_4 
REMARK       I    between atoms: C3_4  and  N1_6 
REMARK    4  A    between atoms: N1_6  and  C4_7 
REMARK    5  A    between atoms: C4_7  and  C13_8 
REMARK    6  A    between atoms: C4_7  and  C5_10 
REMARK    7  A    between atoms: C13_8  and  C7_9 
ROOT
HETATM    1  N2  BES   501      40.407   8.750 197.788  1.00  0.00    -0.079 N 
HETATM    2  H12 BES   501      41.427   9.008 197.981  1.00  0.00     0.274 HD
HETATM    3  H13 BES   501      40.135   7.906 198.386  1.00  0.00     0.274 HD
HETATM    4  H2  BES   501      39.777   9.579 198.035  1.00  0.00     0.274 HD
ENDROOT
BRANCH   1   5
HETATM    5  C1  BES   501      40.248   8.423 196.398  1.00  0.00     0.238 C 
BRANCH   5   6
HETATM    6  C2  BES   501      40.970   9.427 195.526  1.00  0.00     0.123 C 
BRANCH   6   7
HETATM    7  C3  BES   501      42.120  10.055 196.292  1.00  0.00     0.199 C 
HETATM    8  O3  BES   501      43.218   9.513 196.346  1.00  0.00    -0.280 OA
HETATM    9  N1  BES   501      41.876  11.312 197.008  1.00  0.00    -0.248 NA
HETATM   10  H7  BES   501      41.086  11.123 197.704  1.00  0.00     0.131 HD
BRANCH   9  11
HETATM   11  C4  BES   501      42.965  11.959 197.767  1.00  0.00     0.169 C 
BRANCH  11  12
HETATM   12  C13 BES   501      43.004  13.463 197.484  1.00  0.00     0.091 C 
BRANCH  12  13
HETATM   13  C7  BES   501      42.863  13.720 195.972  1.00  0.00     0.053 A 
HETATM   14  C14 BES   501      43.905  13.368 194.893  1.00  0.00     0.116 A 
HETATM   15  N15 BES   501      43.343  13.804 193.528  1.00  0.00    -0.359 N 
HETATM   16  C16 BES   501      41.952  14.425 193.763  1.00  0.00     0.207 A 
HETATM   17  H13 BES   501      43.831  13.695 192.582  1.00  0.00     0.166 HD
HETATM   18  N17 BES   501      41.657  14.372 195.273  1.00  0.00    -0.247 N 
ENDBRANCH  12  13
ENDBRANCH  11  12
BRANCH  11  19
HETATM   19  C5  BES   501      42.879  11.628 199.249  1.00  0.00     0.192 C 
HETATM   20  O1  BES   501      42.433  12.479 200.063  1.00  0.00    -0.647 OA
HETATM   21  O4  BES   501      43.239  10.497 199.672  1.00  0.00    -0.647 OA
ENDBRANCH  11  19
ENDBRANCH   9  11
ENDBRANCH   6   7
ENDBRANCH   5   6
ENDBRANCH   1   5
TORSDOF 7
ENDMDL
MODEL 4
REMARK VINA RESULT:    -1.676     11.491     14.091
REMARK INTER + INTRA:          -5.049
REMARK INTER:                  -2.836
REMARK INTRA:                  -2.213
REMARK UNBOUND:                -2.100
REMARK  7 active torsions:
REMARK  status: ('A' for Active; 'I' for Inactive)
REMARK    1  A    between atoms: N2_1  and  C1_2 
REMARK    2  A    between atoms: C1_2  and  C2_3 
REMARK    3  A    between atoms: C2_3  and  C3_4 
REMARK       I    between atoms: C3_4  and  N1_6 
REMARK    4  A    between atoms: N1_6  and  C4_7 
REMARK    5  A    between atoms: C4_7  and  C13_8 
REMARK    6  A    between atoms: C4_7  and  C5_10 
REMARK    7  A    between atoms: C13_8  and  C7_9 
ROOT
HETATM    1  N2  BES   501      41.642  19.481 198.822  1.00  0.00    -0.079 N 
HETATM    2  H1  BES   501      40.780  19.817 198.284  1.00  0.00     0.274 HD
HETATM    3  H2  BES   501      42.526  19.824 198.327  1.00  0.00     0.274 HD
HETATM    4  H1  BES   501      41.615  19.873 199.817  1.00  0.00     0.274 HD
ENDROOT
BRANCH   1   5
HETATM    5  C1  BES   501      41.646  18.006 198.873  1.00  0.00     0.238 C 
BRANCH   5   6
HETATM    6  C2  BES   501      41.569  17.463 200.267  1.00  0.00     0.123 C 
BRANCH   6   7
HETATM    7  C3  BES   501      41.826  18.577 201.239  1.00  0.00     0.199 C 
HETATM    8  O3  BES   501      42.979  18.811 201.526  1.00  0.00    -0.280 OA
HETATM    9  N1  BES   501      40.687  19.325 201.788  1.00  0.00    -0.248 NA
HETATM   10  H7  BES   501      40.063  18.595 202.260  1.00  0.00     0.131 HD
BRANCH   9  11
HETATM   11  C4  BES   501      40.800  20.423 202.749  1.00  0.00     0.169 C 
BRANCH  11  12
HETATM   12  C13 BES   501      40.148  21.682 202.171  1.00  0.00     0.089 C 
BRANCH  12  13
HETATM   13  C7  BES   501      41.053  22.314 201.096  1.00  0.00     0.031 A 
HETATM   14  C21 BES   501      42.594  22.313 201.095  1.00  0.00     0.143 A 
HETATM   15  N22 BES   501      43.068  23.057 199.834  1.00  0.00    -0.254 N 
HETATM   16  C23 BES   501      41.823  23.517 199.054  1.00  0.00     0.209 A 
HETATM   17  N24 BES   501      40.577  23.057 199.835  1.00  0.00    -0.348 N 
HETATM   18  C1  BES   501      39.131  23.297 199.431  1.00  0.00     0.157 C 
ENDBRANCH  12  13
ENDBRANCH  11  12
BRANCH  11  19
HETATM   19  C5  BES   501      40.054  20.021 203.978  1.00  0.00     0.192 C 
HETATM   20  O1  BES   501      39.661  18.829 204.103  1.00  0.00    -0.647 OA
HETATM   21  O4  BES   501      39.887  20.907 204.874  1.00  0.00    -0.647 OA
ENDBRANCH  11  19
ENDBRANCH   9  11
ENDBRANCH   6   7
ENDBRANCH   5   6
ENDBRANCH   1   5
TORSDOF 7
REMARK  7 active torsions:
REMARK  status: ('A' for Active; 'I' for Inactive)
REMARK    1  A    between atoms: N2_1  and  C1_2 
REMARK    2  A    between atoms: C1_2  and  C2_3 
REMARK    3  A    between atoms: C2_3  and  C3_4 
REMARK       I    between atoms: C3_4  and  N1_6 
REMARK    4  A    between atoms: N1_6  and  C4_7 
REMARK    5  A    between atoms: C4_7  and  C13_8 
REMARK    6  A    between atoms: C4_7  and  C5_10 
REMARK    7  A    between atoms: C13_8  and  C7_9 
ROOT
HETATM    1  N2  BES   501      38.135  17.602 201.781  1.00  0.00    -0.079 N 
HETATM    2  H12 BES   501      37.564  18.496 201.647  1.00  0.00     0.274 HD
HETATM    3  H13 BES   501      39.169  17.854 201.888  1.00  0.00     0.274 HD
HETATM    4  H2  BES   501      37.800  17.093 202.660  1.00  0.00     0.274 HD
ENDROOT
BRANCH   1   5
HETATM    5  C1  BES   501      37.966  16.747 200.638  1.00  0.00     0.238 C 
BRANCH   5   6
HETATM    6  C2  BES   501      37.819  17.566 199.374  1.00  0.00     0.123 C 
BRANCH   6   7
HETATM    7  C3  BES   501      37.750  19.044 199.714  1.00  0.00     0.199 C 
HETATM    8  O3  BES   501      38.722  19.775 199.564  1.00  0.00    -0.280 OA
HETATM    9  N1  BES   501      36.499  19.574 200.267  1.00  0.00    -0.248 NA
HETATM   10  H7  BES   501      36.301  19.025 201.164  1.00  0.00     0.131 HD
BRANCH   9  11
HETATM   11  C4  BES   501      36.387  21.006 200.613  1.00  0.00     0.169 C 
BRANCH  11  12
HETATM   12  C13 BES   501      35.171  21.634 199.928  1.00  0.00     0.091 C 
BRANCH  12  13
HETATM   13  C7  BES   501      35.607  22.372 198.649  1.00  0.00     0.053 A 
HETATM   14  C14 BES   501      35.312  23.845 198.308  1.00  0.00     0.116 A 
HETATM   15  N15 BES   501      35.936  24.151 196.934  1.00  0.00    -0.359 N 
HETATM   16  C16 BES   501      36.618  22.866 196.426  1.00  0.00     0.207 A 
HETATM   17  H13 BES   501      35.904  25.090 196.422  1.00  0.00     0.166 HD
HETATM   18  N17 BES   501      36.414  21.768 197.485  1.00  0.00    -0.247 N 
ENDBRANCH  12  13
ENDBRANCH  11  12
BRANCH  11  19
HETATM   19  C5  BES   501      36.404  21.216 202.119  1.00  0.00     0.192 C 
HETATM   20  O1  BES   501      36.749  20.277 202.885  1.00  0.00    -0.647 OA
HETATM   21  O4  BES   501      36.089  22.332 202.611  1.00  0.00    -0.647 OA
ENDBRANCH  11  19
ENDBRANCH   9  11
ENDBRANCH   6   7
ENDBRANCH   5   6
ENDBRANCH   1   5
TORSDOF 7
ENDMDL
MODEL 5
REMARK VINA RESULT:    -1.673      2.400      5.198
REMARK INTER + INTRA:          -5.044
REMARK INTER:                  -3.056
REMARK INTRA:                  -1.989
REMARK UNBOUND:                -2.100
REMARK  7 active torsions:
REMARK  status: ('A' for Active; 'I' for Inactive)
REMARK    1  A    between atoms: N2_1  and  C1_2 
REMARK    2  A    between atoms: C1_2  and  C2_3 
REMARK    3  A    between atoms: C2_3  and  C3_4 
REMARK       I    between atoms: C3_4  and  N1_6 
REMARK    4  A    between atoms: N1_6  and  C4_7 
REMARK    5  A    between atoms: C4_7  and  C13_8 
REMARK    6  A    between atoms: C4_7  and  C5_10 
REMARK    7  A    between atoms: C13_8  and  C7_9 
ROOT
HETATM    1  N2  BES   501      36.089   9.281 192.373  1.00  0.00    -0.079 N 
HETATM    2  H1  BES   501      35.674  10.069 191.779  1.00  0.00     0.274 HD
HETATM    3  H2  BES   501      36.030   9.546 193.408  1.00  0.00     0.274 HD
HETATM    4  H1  BES   501      35.537   8.380 192.204  1.00  0.00     0.274 HD
ENDROOT
BRANCH   1   5
HETATM    5  C1  BES   501      37.501   9.071 191.997  1.00  0.00     0.238 C 
BRANCH   5   6
HETATM    6  C2  BES   501      37.784   9.395 190.562  1.00  0.00     0.123 C 
BRANCH   6   7
HETATM    7  C3  BES   501      36.513   9.848 189.904  1.00  0.00     0.199 C 
HETATM    8  O3  BES   501      35.805   8.996 189.415  1.00  0.00    -0.280 OA
HETATM    9  N1  BES   501      36.187  11.280 189.886  1.00  0.00    -0.248 NA
HETATM   10  H7  BES   501      37.014  11.758 189.401  1.00  0.00     0.131 HD
BRANCH   9  11
HETATM   11  C4  BES   501      34.989  11.851 189.269  1.00  0.00     0.169 C 
BRANCH  11  12
HETATM   12  C13 BES   501      33.834  11.833 190.276  1.00  0.00     0.089 C 
BRANCH  12  13
HETATM   13  C7  BES   501      32.618  11.093 189.688  1.00  0.00     0.031 A 
HETATM   14  C21 BES   501      31.729  11.588 188.532  1.00  0.00     0.143 A 
HETATM   15  N22 BES   501      30.639  10.530 188.284  1.00  0.00    -0.254 N 
HETATM   16  C23 BES   501      30.853   9.380 189.285  1.00  0.00     0.209 A 
HETATM   17  N24 BES   501      32.077   9.729 190.152  1.00  0.00    -0.348 N 
HETATM   18  C1  BES   501      32.650   8.874 191.273  1.00  0.00     0.157 C 
ENDBRANCH  12  13
ENDBRANCH  11  12
BRANCH  11  19
HETATM   19  C5  BES   501      35.297  13.271 188.923  1.00  0.00     0.192 C 
HETATM   20  O1  BES   501      36.385  13.781 189.307  1.00  0.00    -0.647 OA
HETATM   21  O4  BES   501      34.450  13.892 188.208  1.00  0.00    -0.647 OA
ENDBRANCH  11  19
ENDBRANCH   9  11
ENDBRANCH   6   7
ENDBRANCH   5   6
ENDBRANCH   1   5
TORSDOF 7
REMARK  7 active torsions:
REMARK  status: ('A' for Active; 'I' for Inactive)
REMARK    1  A    between atoms: N2_1  and  C1_2 
REMARK    2  A    between atoms: C1_2  and  C2_3 
REMARK    3  A    between atoms: C2_3  and  C3_4 
REMARK       I    between atoms: C3_4  and  N1_6 
REMARK    4  A    between atoms: N1_6  and  C4_7 
REMARK    5  A    between atoms: C4_7  and  C13_8 
REMARK    6  A    between atoms: C4_7  and  C5_10 
REMARK    7  A    between atoms: C13_8  and  C7_9 
ROOT
HETATM    1  N2  BES   501      38.486  12.945 191.131  1.00  0.00    -0.079 N 
HETATM    2  H12 BES   501      38.895  13.887 190.831  1.00  0.00     0.274 HD
HETATM    3  H13 BES   501      37.429  13.042 191.260  1.00  0.00     0.274 HD
HETATM    4  H2  BES   501      38.688  12.212 190.379  1.00  0.00     0.274 HD
ENDROOT
BRANCH   1   5
HETATM    5  C1  BES   501      39.084  12.535 192.372  1.00  0.00     0.238 C 
BRANCH   5   6
HETATM    6  C2  BES   501      38.182  12.876 193.539  1.00  0.00     0.123 C 
BRANCH   6   7
HETATM    7  C3  BES   501      36.759  13.085 193.056  1.00  0.00     0.199 C 
HETATM    8  O3  BES   501      36.036  12.135 192.781  1.00  0.00    -0.280 OA
HETATM    9  N1  BES   501      36.276  14.460 192.885  1.00  0.00    -0.248 NA
HETATM   10  H7  BES   501      36.931  14.932 192.183  1.00  0.00     0.131 HD
BRANCH   9  11
HETATM   11  C4  BES   501      34.898  14.712 192.418  1.00  0.00     0.169 C 
BRANCH  11  12
HETATM   12  C13 BES   501      33.913  14.671 193.588  1.00  0.00     0.091 C 
BRANCH  12  13
HETATM   13  C7  BES   501      32.752  13.712 193.269  1.00  0.00     0.053 A 
HETATM   14  C14 BES   501      32.591  12.276 193.802  1.00  0.00     0.116 A 
HETATM   15  N15 BES   501      31.288  11.695 193.223  1.00  0.00    -0.359 N 
HETATM   16  C16 BES   501      30.642  12.774 192.332  1.00  0.00     0.207 A 
HETATM   17  H13 BES   501      30.898  10.716 193.408  1.00  0.00     0.166 HD
HETATM   18  N17 BES   501      31.547  14.019 192.361  1.00  0.00    -0.247 N 
ENDBRANCH  12  13
ENDBRANCH  11  12
BRANCH  11  19
HETATM   19  C5  BES   501      34.814  15.995 191.606  1.00  0.00     0.192 C 
HETATM   20  O1  BES   501      35.597  16.951 191.849  1.00  0.00    -0.647 OA
HETATM   21  O4  BES   501      33.973  16.106 190.674  1.00  0.00    -0.647 OA
ENDBRANCH  11  19
ENDBRANCH   9  11
ENDBRANCH   6   7
ENDBRANCH   5   6
ENDBRANCH   1   5
TORSDOF 7
ENDMDL
MODEL 6
REMARK VINA RESULT:    -1.667      6.224      8.578
REMARK INTER + INTRA:          -5.034
REMARK INTER:                  -2.779
REMARK INTRA:                  -2.255
REMARK UNBOUND:                -2.100
REMARK  7 active torsions:
REMARK  status: ('A' for Active; 'I' for Inactive)
REMARK    1  A    between atoms: N2_1  and  C1_2 
REMARK    2  A    between atoms: C1_2  and  C2_3 
REMARK    3  A    between atoms: C2_3  and  C3_4 
REMARK       I    between atoms: C3_4  and  N1_6 
REMARK    4  A    between atoms: N1_6  and  C4_7 
REMARK    5  A    between atoms: C4_7  and  C13_8 
REMARK    6  A    between atoms: C4_7  and  C5_10 
REMARK    7  A    between atoms: C13_8  and  C7_9 
ROOT
HETATM    1  N2  BES   501      34.421  19.189 193.305  1.00  0.00    -0.079 N 
HETATM    2  H1  BES   501      34.517  19.100 192.243  1.00  0.00     0.274 HD
HETATM    3  H2  BES   501      35.393  19.179 193.752  1.00  0.00     0.274 HD
HETATM    4  H1  BES   501      33.930  20.109 193.541  1.00  0.00     0.274 HD
ENDROOT
BRANCH   1   5
HETATM    5  C1  BES   501      33.627  18.058 193.825  1.00  0.00     0.238 C 
BRANCH   5   6
HETATM    6  C2  BES   501      34.464  16.879 194.214  1.00  0.00     0.123 C 
BRANCH   6   7
HETATM    7  C3  BES   501      35.911  17.213 193.994  1.00  0.00     0.199 C 
HETATM    8  O3  BES   501      36.575  17.484 194.969  1.00  0.00    -0.280 OA
HETATM    9  N1  BES   501      36.451  17.191 192.627  1.00  0.00    -0.248 NA
HETATM   10  H7  BES   501      35.850  17.880 192.070  1.00  0.00     0.131 HD
BRANCH   9  11
HETATM   11  C4  BES   501      37.835  17.506 192.276  1.00  0.00     0.169 C 
BRANCH  11  12
HETATM   12  C13 BES   501      38.554  16.231 191.824  1.00  0.00     0.089 C 
BRANCH  12  13
HETATM   13  C7  BES   501      39.683  15.869 192.807  1.00  0.00     0.031 A 
HETATM   14  C21 BES   501      41.156  16.306 192.695  1.00  0.00     0.143 A 
HETATM   15  N22 BES   501      41.920  15.713 193.893  1.00  0.00    -0.254 N 
HETATM   16  C23 BES   501      40.920  14.911 194.747  1.00  0.00     0.209 A 
HETATM   17  N24 BES   501      39.537  15.008 194.075  1.00  0.00    -0.348 N 
HETATM   18  C1  BES   501      38.254  14.365 194.576  1.00  0.00     0.157 C 
ENDBRANCH  12  13
ENDBRANCH  11  12
BRANCH  11  19
HETATM   19  C5  BES   501      37.801  18.465 191.132  1.00  0.00     0.192 C 
HETATM   20  O1  BES   501      38.634  18.339 190.193  1.00  0.00    -0.647 OA
HETATM   21  O4  BES   501      36.889  19.350 191.141  1.00  0.00    -0.647 OA
ENDBRANCH  11  19
ENDBRANCH   9  11
ENDBRANCH   6   7
ENDBRANCH   5   6
ENDBRANCH   1   5
TORSDOF 7
REMARK  7 active torsions:
REMARK  status: ('A' for Active; 'I' for Inactive)
REMARK    1  A    between atoms: N2_1  and  C1_2 
REMARK    2  A    between atoms: C1_2  and  C2_3 
REMARK    3  A    between atoms: C2_3  and  C3_4 
REMARK       I    between atoms: C3_4  and  N1_6 
REMARK    4  A    between atoms: N1_6  and  C4_7 
REMARK    5  A    between atoms: C4_7  and  C13_8 
REMARK    6  A    between atoms: C4_7  and  C5_10 
REMARK    7  A    between atoms: C13_8  and  C7_9 
ROOT
HETATM    1  N2  BES   501      36.899  18.329 197.825  1.00  0.00    -0.079 N 
HETATM    2  H12 BES   501      37.045  18.937 196.958  1.00  0.00     0.274 HD
HETATM    3  H13 BES   501      37.251  17.338 197.628  1.00  0.00     0.274 HD
HETATM    4  H2  BES   501      37.443  18.743 198.648  1.00  0.00     0.274 HD
ENDROOT
BRANCH   1   5
HETATM    5  C1  BES   501      35.499  18.283 198.150  1.00  0.00     0.238 C 
BRANCH   5   6
HETATM    6  C2  BES   501      34.751  19.396 197.450  1.00  0.00     0.123 C 
BRANCH   6   7
HETATM    7  C3  BES   501      35.728  20.429 196.917  1.00  0.00     0.199 C 
HETATM    8  O3  BES   501      36.164  21.321 197.635  1.00  0.00    -0.280 OA
HETATM    9  N1  BES   501      36.109  20.361 195.502  1.00  0.00    -0.248 NA
HETATM   10  H7  BES   501      35.206  20.444 194.934  1.00  0.00     0.131 HD
BRANCH   9  11
HETATM   11  C4  BES   501      37.056  21.345 194.939  1.00  0.00     0.169 C 
BRANCH  11  12
HETATM   12  C13 BES   501      38.232  20.639 194.261  1.00  0.00     0.091 C 
BRANCH  12  13
HETATM   13  C7  BES   501      39.129  19.972 195.320  1.00  0.00     0.053 A 
HETATM   14  C14 BES   501      39.554  20.590 196.666  1.00  0.00     0.116 A 
HETATM   15  N15 BES   501      40.447  19.571 197.398  1.00  0.00    -0.359 N 
HETATM   16  C16 BES   501      40.574  18.322 196.504  1.00  0.00     0.207 A 
HETATM   17  H13 BES   501      40.899  19.705 198.358  1.00  0.00     0.166 HD
HETATM   18  N17 BES   501      39.760  18.571 195.221  1.00  0.00    -0.247 N 
ENDBRANCH  12  13
ENDBRANCH  11  12
BRANCH  11  19
HETATM   19  C5  BES   501      36.348  22.339 194.032  1.00  0.00     0.192 C 
HETATM   20  O1  BES   501      35.763  21.941 192.990  1.00  0.00    -0.647 OA
HETATM   21  O4  BES   501      36.328  23.566 194.322  1.00  0.00    -0.647 OA
ENDBRANCH  11  19
ENDBRANCH   9  11
ENDBRANCH   6   7
ENDBRANCH   5   6
ENDBRANCH   1   5
TORSDOF 7
ENDMDL
MODEL 7
REMARK VINA RESULT:    -1.666      6.072      8.404
REMARK INTER + INTRA:          -5.032
REMARK INTER:                  -2.855
REMARK INTRA:                  -2.177
REMARK UNBOUND:                -2.100
REMARK  7 active torsions:
REMARK  status: ('A' for Active; 'I' for Inactive)
REMARK    1  A    between atoms: N2_1  and  C1_2 
REMARK    2  A    between atoms: C1_2  and  C2_3 
REMARK    3  A    between atoms: C2_3  and  C3_4 
REMARK       I    between atoms: C3_4  and  N1_6 
REMARK    4  A    between atoms: N1_6  and  C4_7 
REMARK    5  A    between atoms: C4_7  and  C13_8 
REMARK    6  A    between atoms: C4_7  and  C5_10 
REMARK    7  A    between atoms: C13_8  and  C7_9 
ROOT
HETATM    1  N2  BES   501      35.731  16.899 194.063  1.00  0.00    -0.079 N 
HETATM    2  H1  BES   501      35.811  16.637 193.028  1.00  0.00     0.274 HD
HETATM    3  H2  BES   501      36.382  16.276 194.639  1.00  0.00     0.274 HD
HETATM    4  H1  BES   501      36.011  17.923 194.192  1.00  0.00     0.274 HD
ENDROOT
BRANCH   1   5
HETATM    5  C1  BES   501      34.339  16.707 194.513  1.00  0.00     0.238 C 
BRANCH   5   6
HETATM    6  C2  BES   501      34.095  15.361 195.123  1.00  0.00     0.123 C 
BRANCH   6   7
HETATM    7  C3  BES   501      35.238  14.453 194.773  1.00  0.00     0.199 C 
HETATM    8  O3  BES   501      35.181  13.867 193.715  1.00  0.00    -0.280 OA
HETATM    9  N1  BES   501      36.361  14.320 195.713  1.00  0.00    -0.248 NA
HETATM   10  H7  BES   501      35.928  13.989 196.634  1.00  0.00     0.131 HD
BRANCH   9  11
HETATM   11  C4  BES   501      37.527  13.464 195.497  1.00  0.00     0.169 C 
BRANCH  11  12
HETATM   12  C13 BES   501      38.802  14.312 195.530  1.00  0.00     0.089 C 
BRANCH  12  13
HETATM   13  C7  BES   501      38.920  15.157 194.247  1.00  0.00     0.031 A 
HETATM   14  C21 BES   501      38.501  14.718 192.832  1.00  0.00     0.143 A 
HETATM   15  N22 BES   501      38.801  15.878 191.866  1.00  0.00    -0.254 N 
HETATM   16  C23 BES   501      39.406  17.035 192.683  1.00  0.00     0.209 A 
HETATM   17  N24 BES   501      39.479  16.589 194.155  1.00  0.00    -0.348 N 
HETATM   18  C1  BES   501      40.011  17.417 195.315  1.00  0.00     0.157 C 
ENDBRANCH  12  13
ENDBRANCH  11  12
BRANCH  11  19
HETATM   19  C5  BES   501      37.578  12.484 196.623  1.00  0.00     0.192 C 
HETATM   20  O1  BES   501      38.678  11.950 196.930  1.00  0.00    -0.647 OA
HETATM   21  O4  BES   501      36.497  12.268 197.257  1.00  0.00    -0.647 OA
ENDBRANCH  11  19
ENDBRANCH   9  11
ENDBRANCH   6   7
ENDBRANCH   5   6
ENDBRANCH   1   5
TORSDOF 7
REMARK  7 active torsions:
REMARK  status: ('A' for Active; 'I' for Inactive)
REMARK    1  A    between atoms: N2_1  and  C1_2 
REMARK    2  A    between atoms: C1_2  and  C2_3 
REMARK    3  A    between atoms: C2_3  and  C3_4 
REMARK       I    between atoms: C3_4  and  N1_6 
REMARK    4  A    between atoms: N1_6  and  C4_7 
REMARK    5  A    between atoms: C4_7  and  C13_8 
REMARK    6  A    between atoms: C4_7  and  C5_10 
REMARK    7  A    between atoms: C13_8  and  C7_9 
ROOT
HETATM    1  N2  BES   501      35.391  14.809 198.602  1.00  0.00    -0.079 N 
HETATM    2  H12 BES   501      36.324  15.218 198.275  1.00  0.00     0.274 HD
HETATM    3  H13 BES   501      35.025  14.126 197.863  1.00  0.00     0.274 HD
HETATM    4  H2  BES   501      35.534  14.290 199.526  1.00  0.00     0.274 HD
ENDROOT
BRANCH   1   5
HETATM    5  C1  BES   501      34.439  15.869 198.787  1.00  0.00     0.238 C 
BRANCH   5   6
HETATM    6  C2  BES   501      35.024  17.195 198.354  1.00  0.00     0.123 C 
BRANCH   6   7
HETATM    7  C3  BES   501      36.498  17.037 198.028  1.00  0.00     0.199 C 
HETATM    8  O3  BES   501      36.888  16.973 196.868  1.00  0.00    -0.280 OA
HETATM    9  N1  BES   501      37.448  16.918 199.140  1.00  0.00    -0.248 NA
HETATM   10  H7  BES   501      37.147  16.065 199.713  1.00  0.00     0.131 HD
BRANCH   9  11
HETATM   11  C4  BES   501      38.892  16.761 198.870  1.00  0.00     0.169 C 
BRANCH  11  12
HETATM   12  C13 BES   501      39.711  17.728 199.728  1.00  0.00     0.091 C 
BRANCH  12  13
HETATM   13  C7  BES   501      40.620  18.589 198.832  1.00  0.00     0.053 A 
HETATM   14  C14 BES   501      42.072  18.260 198.435  1.00  0.00     0.116 A 
HETATM   15  N15 BES   501      42.588  19.397 197.534  1.00  0.00    -0.359 N 
HETATM   16  C16 BES   501      41.455  20.428 197.373  1.00  0.00     0.207 A 
HETATM   17  H13 BES   501      43.562  19.460 197.095  1.00  0.00     0.166 HD
HETATM   18  N17 BES   501      40.240  19.928 198.176  1.00  0.00    -0.247 N 
ENDBRANCH  12  13
ENDBRANCH  11  12
BRANCH  11  19
HETATM   19  C5  BES   501      39.328  15.311 199.015  1.00  0.00     0.192 C 
HETATM   20  O1  BES   501      40.527  14.987 198.809  1.00  0.00    -0.647 OA
HETATM   21  O4  BES   501      38.498  14.426 199.356  1.00  0.00    -0.647 OA
ENDBRANCH  11  19
ENDBRANCH   9  11
ENDBRANCH   6   7
ENDBRANCH   5   6
ENDBRANCH   1   5
TORSDOF 7
ENDMDL
MODEL 8
REMARK VINA RESULT:    -1.660      6.713      9.214
REMARK INTER + INTRA:          -5.021
REMARK INTER:                  -2.781
REMARK INTRA:                  -2.241
REMARK UNBOUND:                -2.100
REMARK  7 active torsions:
REMARK  status: ('A' for Active; 'I' for Inactive)
REMARK    1  A    between atoms: N2_1  and  C1_2 
REMARK    2  A    between atoms: C1_2  and  C2_3 
REMARK    3  A    between atoms: C2_3  and  C3_4 
REMARK       I    between atoms: C3_4  and  N1_6 
REMARK    4  A    between atoms: N1_6  and  C4_7 
REMARK    5  A    between atoms: C4_7  and  C13_8 
REMARK    6  A    between atoms: C4_7  and  C5_10 
REMARK    7  A    between atoms: C13_8  and  C7_9 
ROOT
HETATM    1  N2  BES   501      41.797  16.923 194.674  1.00  0.00    -0.079 N 
HETATM    2  H1  BES   501      42.392  17.767 194.958  1.00  0.00     0.274 HD
HETATM    3  H2  BES   501      42.167  16.519 193.755  1.00  0.00     0.274 HD
HETATM    4  H1  BES   501      41.852  16.177 195.439  1.00  0.00     0.274 HD
ENDROOT
BRANCH   1   5
HETATM    5  C1  BES   501      40.394  17.346 194.498  1.00  0.00     0.238 C 
BRANCH   5   6
HETATM    6  C2  BES   501      39.406  16.278 194.853  1.00  0.00     0.123 C 
BRANCH   6   7
HETATM    7  C3  BES   501      40.150  15.019 195.195  1.00  0.00     0.199 C 
HETATM    8  O3  BES   501      40.274  14.748 196.368  1.00  0.00    -0.280 OA
HETATM    9  N1  BES   501      40.680  14.184 194.110  1.00  0.00    -0.248 NA
HETATM   10  H7  BES   501      41.327  14.823 193.545  1.00  0.00     0.131 HD
BRANCH   9  11
HETATM   11  C4  BES   501      41.430  12.943 194.307  1.00  0.00     0.169 C 
BRANCH  11  12
HETATM   12  C13 BES   501      40.777  11.815 193.503  1.00  0.00     0.089 C 
BRANCH  12  13
HETATM   13  C7  BES   501      40.248  10.717 194.445  1.00  0.00     0.031 A 
HETATM   14  C21 BES   501      38.825  10.634 195.030  1.00  0.00     0.143 A 
HETATM   15  N22 BES   501      38.748   9.376 195.914  1.00  0.00    -0.254 N 
HETATM   16  C23 BES   501      40.121   8.680 195.876  1.00  0.00     0.209 A 
HETATM   17  N24 BES   501      41.048   9.510 194.968  1.00  0.00    -0.348 N 
HETATM   18  C1  BES   501      42.500   9.192 194.644  1.00  0.00     0.157 C 
ENDBRANCH  12  13
ENDBRANCH  11  12
BRANCH  11  19
HETATM   19  C5  BES   501      42.810  13.165 193.783  1.00  0.00     0.192 C 
HETATM   20  O1  BES   501      43.442  14.203 194.122  1.00  0.00    -0.647 OA
HETATM   21  O4  BES   501      43.305  12.258 193.043  1.00  0.00    -0.647 OA
ENDBRANCH  11  19
ENDBRANCH   9  11
ENDBRANCH   6   7
ENDBRANCH   5   6
ENDBRANCH   1   5
TORSDOF 7
REMARK  7 active torsions:
REMARK  status: ('A' for Active; 'I' for Inactive)
REMARK    1  A    between atoms: N2_1  and  C1_2 
REMARK    2  A    between atoms: C1_2  and  C2_3 
REMARK    3  A    between atoms: C2_3  and  C3_4 
REMARK       I    between atoms: C3_4  and  N1_6 
REMARK    4  A    between atoms: N1_6  and  C4_7 
REMARK    5  A    between atoms: C4_7  and  C13_8 
REMARK    6  A    between atoms: C4_7  and  C5_10 
REMARK    7  A    between atoms: C13_8  and  C7_9 
ROOT
HETATM    1  N2  BES   501      43.192  14.179 197.230  1.00  0.00    -0.079 N 
HETATM    2  H12 BES   501      42.145  14.019 197.084  1.00  0.00     0.274 HD
HETATM    3  H13 BES   501      43.560  13.485 197.956  1.00  0.00     0.274 HD
HETATM    4  H2  BES   501      43.708  14.033 196.304  1.00  0.00     0.274 HD
ENDROOT
BRANCH   1   5
HETATM    5  C1  BES   501      43.413  15.521 197.696  1.00  0.00     0.238 C 
BRANCH   5   6
HETATM    6  C2  BES   501      42.744  15.740 199.035  1.00  0.00     0.123 C 
BRANCH   6   7
HETATM    7  C3  BES   501      42.232  14.422 199.586  1.00  0.00     0.199 C 
HETATM    8  O3  BES   501      42.919  13.736 200.333  1.00  0.00    -0.280 OA
HETATM    9  N1  BES   501      40.902  13.962 199.168  1.00  0.00    -0.248 NA
HETATM   10  H7  BES   501      40.924  13.883 198.102  1.00  0.00     0.131 HD
BRANCH   9  11
HETATM   11  C4  BES   501      40.363  12.685 199.678  1.00  0.00     0.169 C 
BRANCH  11  12
HETATM   12  C13 BES   501      38.883  12.830 200.042  1.00  0.00     0.091 C 
BRANCH  12  13
HETATM   13  C7  BES   501      38.146  13.630 198.953  1.00  0.00     0.053 A 
HETATM   14  C14 BES   501      37.651  13.077 197.603  1.00  0.00     0.116 A 
HETATM   15  N15 BES   501      36.974  14.228 196.836  1.00  0.00    -0.359 N 
HETATM   16  C16 BES   501      37.050  15.492 197.713  1.00  0.00     0.207 A 
HETATM   17  H13 BES   501      36.528  14.161 195.865  1.00  0.00     0.166 HD
HETATM   18  N17 BES   501      37.774  15.122 199.020  1.00  0.00    -0.247 N 
ENDBRANCH  12  13
ENDBRANCH  11  12
BRANCH  11  19
HETATM   19  C5  BES   501      40.636  11.543 198.712  1.00  0.00     0.192 C 
HETATM   20  O1  BES   501      41.258  11.757 197.639  1.00  0.00    -0.647 OA
HETATM   21  O4  BES   501      40.256  10.373 198.984  1.00  0.00    -0.647 OA
ENDBRANCH  11  19
ENDBRANCH   9  11
ENDBRANCH   6   7
ENDBRANCH   5   6
ENDBRANCH   1   5
TORSDOF 7
ENDMDL
MODEL 9
REMARK VINA RESULT:    -1.655      1.683      2.020
REMARK INTER + INTRA:          -5.013
REMARK INTER:                  -2.923
REMARK INTRA:                  -2.089
REMARK UNBOUND:                -2.100
REMARK  7 active torsions:
REMARK  status: ('A' for Active; 'I' for Inactive)
REMARK    1  A    between atoms: N2_1  and  C1_2 
REMARK    2  A    between atoms: C1_2  and  C2_3 
REMARK    3  A    between atoms: C2_3  and  C3_4 
REMARK       I    between atoms: C3_4  and  N1_6 
REMARK    4  A    between atoms: N1_6  and  C4_7 
REMARK    5  A    between atoms: C4_7  and  C13_8 
REMARK    6  A    between atoms: C4_7  and  C5_10 
REMARK    7  A    between atoms: C13_8  and  C7_9 
ROOT
HETATM    1  N2  BES   501      35.170   8.384 190.523  1.00  0.00    -0.079 N 
HETATM    2  H1  BES   501      35.586   7.493 190.100  1.00  0.00     0.274 HD
HETATM    3  H2  BES   501      35.957   9.073 190.746  1.00  0.00     0.274 HD
HETATM    4  H1  BES   501      34.496   8.828 189.821  1.00  0.00     0.274 HD
ENDROOT
BRANCH   1   5
HETATM    5  C1  BES   501      34.442   8.048 191.762  1.00  0.00     0.238 C 
BRANCH   5   6
HETATM    6  C2  BES   501      34.918   8.820 192.954  1.00  0.00     0.123 C 
BRANCH   6   7
HETATM    7  C3  BES   501      36.167   9.567 192.585  1.00  0.00     0.199 C 
HETATM    8  O3  BES   501      37.222   8.991 192.723  1.00  0.00    -0.280 OA
HETATM    9  N1  BES   501      36.055  10.941 192.076  1.00  0.00    -0.248 NA
HETATM   10  H7  BES   501      35.539  11.489 192.838  1.00  0.00     0.131 HD
BRANCH   9  11
HETATM   11  C4  BES   501      37.191  11.779 191.692  1.00  0.00     0.169 C 
BRANCH  11  12
HETATM   12  C13 BES   501      37.522  11.551 190.214  1.00  0.00     0.089 C 
BRANCH  12  13
HETATM   13  C7  BES   501      38.969  11.046 190.057  1.00  0.00     0.031 A 
HETATM   14  C21 BES   501      39.411   9.572 189.991  1.00  0.00     0.143 A 
HETATM   15  N22 BES   501      40.942   9.542 189.833  1.00  0.00    -0.254 N 
HETATM   16  C23 BES   501      41.447  10.997 189.800  1.00  0.00     0.209 A 
HETATM   17  N24 BES   501      40.227  11.926 189.939  1.00  0.00    -0.348 N 
HETATM   18  C1  BES   501      40.259  13.446 189.957  1.00  0.00     0.157 C 
ENDBRANCH  12  13
ENDBRANCH  11  12
BRANCH  11  19
HETATM   19  C5  BES   501      36.779  13.203 191.874  1.00  0.00     0.192 C 
HETATM   20  O1  BES   501      35.586  13.538 191.635  1.00  0.00    -0.647 OA
HETATM   21  O4  BES   501      37.656  14.012 192.311  1.00  0.00    -0.647 OA
ENDBRANCH  11  19
ENDBRANCH   9  11
ENDBRANCH   6   7
ENDBRANCH   5   6
ENDBRANCH   1   5
TORSDOF 7
REMARK  7 active torsions:
REMARK  status: ('A' for Active; 'I' for Inactive)
REMARK    1  A    between atoms: N2_1  and  C1_2 
REMARK    2  A    between atoms: C1_2  and  C2_3 
REMARK    3  A    between atoms: C2_3  and  C3_4 
REMARK       I    between atoms: C3_4  and  N1_6 
REMARK    4  A    between atoms: N1_6  and  C4_7 
REMARK    5  A    between atoms: C4_7  and  C13_8 
REMARK    6  A    between atoms: C4_7  and  C5_10 
REMARK    7  A    between atoms: C13_8  and  C7_9 
ROOT
HETATM    1  N2  BES   501      33.220  12.046 192.835  1.00  0.00    -0.079 N 
HETATM    2  H12 BES   501      34.269  12.211 192.709  1.00  0.00     0.274 HD
HETATM    3  H13 BES   501      32.759  11.943 191.875  1.00  0.00     0.274 HD
HETATM    4  H2  BES   501      33.064  11.152 193.402  1.00  0.00     0.274 HD
ENDROOT
BRANCH   1   5
HETATM    5  C1  BES   501      32.637  13.162 193.529  1.00  0.00     0.238 C 
BRANCH   5   6
HETATM    6  C2  BES   501      31.934  14.087 192.559  1.00  0.00     0.123 C 
BRANCH   6   7
HETATM    7  C3  BES   501      31.892  13.462 191.176  1.00  0.00     0.199 C 
HETATM    8  O3  BES   501      30.934  12.791 190.812  1.00  0.00    -0.280 OA
HETATM    9  N1  BES   501      33.049  13.646 190.293  1.00  0.00    -0.248 NA
HETATM   10  H7  BES   501      33.897  13.243 190.807  1.00  0.00     0.131 HD
BRANCH   9  11
HETATM   11  C4  BES   501      33.053  13.056 188.939  1.00  0.00     0.169 C 
BRANCH  11  12
HETATM   12  C13 BES   501      33.510  14.084 187.902  1.00  0.00     0.091 C 
BRANCH  12  13
HETATM   13  C7  BES   501      34.770  14.813 188.400  1.00  0.00     0.053 A 
HETATM   14  C14 BES   501      34.806  16.187 189.096  1.00  0.00     0.116 A 
HETATM   15  N15 BES   501      36.274  16.522 189.416  1.00  0.00    -0.359 N 
HETATM   16  C16 BES   501      37.147  15.354 188.919  1.00  0.00     0.207 A 
HETATM   17  H13 BES   501      36.627  17.409 189.900  1.00  0.00     0.166 HD
HETATM   18  N17 BES   501      36.217  14.299 188.291  1.00  0.00    -0.247 N 
ENDBRANCH  12  13
ENDBRANCH  11  12
BRANCH  11  19
HETATM   19  C5  BES   501      33.854  11.765 188.900  1.00  0.00     0.192 C 
HETATM   20  O1  BES   501      34.368  11.371 187.820  1.00  0.00    -0.647 OA
HETATM   21  O4  BES   501      34.024  11.087 189.949  1.00  0.00    -0.647 OA
ENDBRANCH  11  19
ENDBRANCH   9  11
ENDBRANCH   6   7
ENDBRANCH   5   6
ENDBRANCH   1   5
TORSDOF 7
ENDMDL
