MODEL 1
REMARK VINA RESULT:    -1.756      0.000      0.000
REMARK INTER + INTRA:          -5.569
REMARK INTER:                  -3.193
REMARK INTRA:                  -2.376
REMARK UNBOUND:                -2.376
REMARK  8 active torsions:
REMARK  status: ('A' for Active; 'I' for Inactive)
REMARK    1  A    between atoms: C70_1  and  C1_2 
REMARK    2  A    between atoms: C70_1  and  N12_19 
REMARK    3  A    between atoms: C1_2  and  C2_3 
REMARK    4  A    between atoms: C2_3  and  C3_4 
REMARK       I    between atoms: C3_4  and  N1_6 
REMARK    5  A    between atoms: N1_6  and  C4_7 
REMARK    6  A    between atoms: C4_7  and  C13_8 
REMARK    7  A    between atoms: C4_7  and  C5_10 
REMARK    8  A    between atoms: C13_8  and  C7_9 
ROOT
HETATM    1  C70 BES A 501      33.738  17.893 199.395  1.00  6.08     0.230 C 
ENDROOT
BRANCH   1   2
HETATM    2  C1  BES A 501      35.049  18.076 199.879  1.00  6.71     0.036 C 
BRANCH   2   3
HETATM    3  C2  BES A 501      35.550  19.482 199.993  1.00  9.09     0.098 C 
BRANCH   3   4
HETATM    4  C3  BES A 501      36.545  19.736 198.897  1.00  8.29     0.198 C 
HETATM    5  O3  BES A 501      37.028  20.844 198.829  1.00  7.85    -0.280 OA
HETATM    6  N1  BES A 501      36.887  18.645 197.974  1.00  8.97    -0.248 NA
HETATM    7  H7  BES A 501      35.961  18.341 197.533  1.00  8.27     0.131 HD
BRANCH   6   8
HETATM    8  C4  BES A 501      37.830  18.766 196.861  1.00 10.85     0.169 C 
BRANCH   8   9
HETATM    9  C13 BES A 501      38.925  17.703 196.999  1.00  8.22     0.089 C 
BRANCH   9  10
HETATM   10  C7  BES A 501      39.094  17.289 198.474  1.00 11.21     0.029 A 
HETATM   11  C21 BES A 501      40.205  17.770 199.426  1.00  0.00     0.143 A 
HETATM   12  N22 BES A 501      39.980  17.101 200.794  1.00  0.00    -0.254 N 
HETATM   13  C23 BES A 501      38.730  16.207 200.688  1.00  0.00     0.207 A 
HETATM   14  N24 BES A 501      38.183  16.323 199.252  1.00  0.00    -0.353 N 
HETATM   15  H13 BES A 501      37.321  15.822 198.865  1.00  8.23     0.166 HD
ENDBRANCH   9  10
ENDBRANCH   8   9
BRANCH   8  16
HETATM   16  C5  BES A 501      37.072  18.506 195.601  1.00 10.09     0.192 C 
HETATM   17  O1  BES A 501      37.652  18.653 194.489  1.00  5.58    -0.647 OA
HETATM   18  O4  BES A 501      35.875  18.099 195.715  1.00  5.29    -0.647 OA
ENDBRANCH   8  16
ENDBRANCH   6   8
ENDBRANCH   3   4
ENDBRANCH   2   3
ENDBRANCH   1   2
BRANCH   1  19
HETATM   19  N12 BES A 501      33.775  17.711 197.886  1.00  8.22    -0.079 N 
HETATM   20  H14 BES A 501      33.975  18.652 197.418  1.00  8.22     0.274 HD
HETATM   21  H15 BES A 501      32.832  17.339 197.548  1.00  8.22     0.274 HD
HETATM   22  H6  BES A 501      34.546  17.015 197.629  1.00  8.22     0.274 HD
ENDBRANCH   1  19
TORSDOF 8
REMARK  7 active torsions:
REMARK  status: ('A' for Active; 'I' for Inactive)
REMARK    1  A    between atoms: N2_1  and  C1_2 
REMARK    2  A    between atoms: C1_2  and  C2_3 
REMARK    3  A    between atoms: C2_3  and  C3_4 
REMARK       I    between atoms: C3_4  and  N1_6 
REMARK    4  A    between atoms: N1_6  and  C4_7 
REMARK    5  A    between atoms: C4_7  and  C13_8 
REMARK    6  A    between atoms: C4_7  and  C5_10 
REMARK    7  A    between atoms: C13_8  and  C7_9 
ROOT
HETATM    1  N2  BES   501      34.161  15.614 195.030  1.00  0.00    -0.079 N 
HETATM    2  H1  BES   501      35.122  15.821 195.452  1.00  0.00     0.274 HD
HETATM    3  H2  BES   501      33.595  16.521 194.971  1.00  0.00     0.274 HD
HETATM    4  H1  BES   501      34.284  15.206 194.048  1.00  0.00     0.274 HD
ENDROOT
BRANCH   1   5
HETATM    5  C1  BES   501      33.447  14.642 195.881  1.00  0.00     0.238 C 
BRANCH   5   6
HETATM    6  C2  BES   501      34.292  14.099 196.993  1.00  0.00     0.123 C 
BRANCH   6   7
HETATM    7  C3  BES   501      35.665  14.700 196.901  1.00  0.00     0.199 C 
HETATM    8  O3  BES   501      35.930  15.601 197.664  1.00  0.00    -0.280 OA
HETATM    9  N1  BES   501      36.611  14.172 195.908  1.00  0.00    -0.248 NA
HETATM   10  H7  BES   501      36.125  14.280 194.961  1.00  0.00     0.131 HD
BRANCH   9  11
HETATM   11  C4  BES   501      37.971  14.674 195.710  1.00  0.00     0.169 C 
BRANCH  11  12
HETATM   12  C13 BES   501      38.973  13.531 195.893  1.00  0.00     0.089 C 
BRANCH  12  13
HETATM   13  C7  BES   501      40.042  13.911 196.935  1.00  0.00     0.031 A 
HETATM   14  C21 BES   501      41.289  14.779 196.678  1.00  0.00     0.143 A 
HETATM   15  N22 BES   501      42.069  14.894 198.000  1.00  0.00    -0.254 N 
HETATM   16  C23 BES   501      41.305  14.098 199.075  1.00  0.00     0.209 A 
HETATM   17  N24 BES   501      40.052  13.491 198.416  1.00  0.00    -0.348 N 
HETATM   18  C1  BES   501      39.009  12.627 199.107  1.00  0.00     0.157 C 
ENDBRANCH  12  13
ENDBRANCH  11  12
BRANCH  11  19
HETATM   19  C5  BES   501      38.066  15.170 194.304  1.00  0.00     0.192 C 
HETATM   20  O1  BES   501      39.201  15.386 193.799  1.00  0.00    -0.647 OA
HETATM   21  O4  BES   501      36.978  15.308 193.661  1.00  0.00    -0.647 OA
ENDBRANCH  11  19
ENDBRANCH   9  11
ENDBRANCH   6   7
ENDBRANCH   5   6
ENDBRANCH   1   5
TORSDOF 7
ENDMDL
MODEL 2
REMARK VINA RESULT:    -1.731      4.057      7.229
REMARK INTER + INTRA:          -5.525
REMARK INTER:                  -3.483
REMARK INTRA:                  -2.042
REMARK UNBOUND:                -2.376
REMARK  8 active torsions:
REMARK  status: ('A' for Active; 'I' for Inactive)
REMARK    1  A    between atoms: C70_1  and  C1_2 
REMARK    2  A    between atoms: C70_1  and  N12_19 
REMARK    3  A    between atoms: C1_2  and  C2_3 
REMARK    4  A    between atoms: C2_3  and  C3_4 
REMARK       I    between atoms: C3_4  and  N1_6 
REMARK    5  A    between atoms: N1_6  and  C4_7 
REMARK    6  A    between atoms: C4_7  and  C13_8 
REMARK    7  A    between atoms: C4_7  and  C5_10 
REMARK    8  A    between atoms: C13_8  and  C7_9 
ROOT
HETATM    1  C70 BES A 501      39.340  19.631 195.807  1.00  6.08     0.230 C 
ENDROOT
BRANCH   1   2
HETATM    2  C1  BES A 501      39.401  18.598 196.763  1.00  6.71     0.036 C 
BRANCH   2   3
HETATM    3  C2  BES A 501      40.641  17.759 196.790  1.00  9.09     0.098 C 
BRANCH   3   4
HETATM    4  C3  BES A 501      40.261  16.320 196.585  1.00  8.29     0.198 C 
HETATM    5  O3  BES A 501      40.306  15.589 197.549  1.00  7.85    -0.280 OA
HETATM    6  N1  BES A 501      39.853  15.871 195.246  1.00  8.97    -0.248 NA
HETATM    7  H7  BES A 501      40.675  16.105 194.602  1.00  8.27     0.131 HD
BRANCH   6   8
HETATM    8  C4  BES A 501      39.470  14.499 194.912  1.00 10.85     0.169 C 
BRANCH   8   9
HETATM    9  C13 BES A 501      38.062  14.491 194.309  1.00  8.22     0.089 C 
BRANCH   9  10
HETATM   10  C7  BES A 501      37.697  15.887 193.770  1.00 11.21     0.029 A 
HETATM   11  C21 BES A 501      36.679  16.860 194.395  1.00  0.00     0.143 A 
HETATM   12  N22 BES A 501      36.638  18.129 193.524  1.00  0.00    -0.254 N 
HETATM   13  C23 BES A 501      37.631  17.941 192.361  1.00  0.00     0.207 A 
HETATM   14  N24 BES A 501      38.285  16.554 192.514  1.00  0.00    -0.353 N 
HETATM   15  H13 BES A 501      39.020  16.131 191.862  1.00  8.23     0.166 HD
ENDBRANCH   9  10
ENDBRANCH   8   9
BRANCH   8  16
HETATM   16  C5  BES A 501      40.431  14.004 193.881  1.00 10.09     0.192 C 
HETATM   17  O1  BES A 501      40.070  13.952 192.673  1.00  5.58    -0.647 OA
HETATM   18  O4  BES A 501      41.600  13.699 194.274  1.00  5.29    -0.647 OA
ENDBRANCH   8  16
ENDBRANCH   6   8
ENDBRANCH   3   4
ENDBRANCH   2   3
ENDBRANCH   1   2
BRANCH   1  19
HETATM   19  N12 BES A 501      39.966  19.156 194.505  1.00  8.22    -0.079 N 
HETATM   20  H14 BES A 501      40.577  19.933 194.098  1.00  8.22     0.274 HD
HETATM   21  H15 BES A 501      39.194  18.907 193.808  1.00  8.22     0.274 HD
HETATM   22  H6  BES A 501      40.568  18.291 194.693  1.00  8.22     0.274 HD
ENDBRANCH   1  19
TORSDOF 8
REMARK  7 active torsions:
REMARK  status: ('A' for Active; 'I' for Inactive)
REMARK    1  A    between atoms: N2_1  and  C1_2 
REMARK    2  A    between atoms: C1_2  and  C2_3 
REMARK    3  A    between atoms: C2_3  and  C3_4 
REMARK       I    between atoms: C3_4  and  N1_6 
REMARK    4  A    between atoms: N1_6  and  C4_7 
REMARK    5  A    between atoms: C4_7  and  C13_8 
REMARK    6  A    between atoms: C4_7  and  C5_10 
REMARK    7  A    between atoms: C13_8  and  C7_9 
ROOT
HETATM    1  N2  BES   501      42.623  13.737 196.954  1.00  0.00    -0.079 N 
HETATM    2  H1  BES   501      42.666  14.806 196.941  1.00  0.00     0.274 HD
HETATM    3  H2  BES   501      42.170  13.410 197.867  1.00  0.00     0.274 HD
HETATM    4  H1  BES   501      42.040  13.395 196.125  1.00  0.00     0.274 HD
ENDROOT
BRANCH   1   5
HETATM    5  C1  BES   501      43.989  13.187 196.857  1.00  0.00     0.238 C 
BRANCH   5   6
HETATM    6  C2  BES   501      44.968  14.143 196.248  1.00  0.00     0.123 C 
BRANCH   6   7
HETATM    7  C3  BES   501      44.285  15.459 196.013  1.00  0.00     0.199 C 
HETATM    8  O3  BES   501      44.125  16.182 196.971  1.00  0.00    -0.280 OA
HETATM    9  N1  BES   501      43.852  15.808 194.653  1.00  0.00    -0.248 NA
HETATM   10  H7  BES   501      43.194  15.020 194.349  1.00  0.00     0.131 HD
BRANCH   9  11
HETATM   11  C4  BES   501      43.168  17.050 194.293  1.00  0.00     0.169 C 
BRANCH  11  12
HETATM   12  C13 BES   501      44.196  18.172 194.121  1.00  0.00     0.089 C 
BRANCH  12  13
HETATM   13  C7  BES   501      43.548  19.544 194.388  1.00  0.00     0.031 A 
HETATM   14  C21 BES   501      43.282  20.166 195.772  1.00  0.00     0.143 A 
HETATM   15  N22 BES   501      42.621  21.540 195.556  1.00  0.00    -0.254 N 
HETATM   16  C23 BES   501      42.478  21.768 194.040  1.00  0.00     0.209 A 
HETATM   17  N24 BES   501      43.052  20.534 193.318  1.00  0.00    -0.348 N 
HETATM   18  C1  BES   501      43.116  20.329 191.813  1.00  0.00     0.157 C 
ENDBRANCH  12  13
ENDBRANCH  11  12
BRANCH  11  19
HETATM   19  C5  BES   501      42.487  16.824 192.984  1.00  0.00     0.192 C 
HETATM   20  O1  BES   501      41.290  17.195 192.836  1.00  0.00    -0.647 OA
HETATM   21  O4  BES   501      43.174  16.299 192.053  1.00  0.00    -0.647 OA
ENDBRANCH  11  19
ENDBRANCH   9  11
ENDBRANCH   6   7
ENDBRANCH   5   6
ENDBRANCH   1   5
TORSDOF 7
ENDMDL
MODEL 3
REMARK VINA RESULT:    -1.649      4.840      6.749
REMARK INTER + INTRA:          -5.375
REMARK INTER:                  -2.959
REMARK INTRA:                  -2.416
REMARK UNBOUND:                -2.376
REMARK  8 active torsions:
REMARK  status: ('A' for Active; 'I' for Inactive)
REMARK    1  A    between atoms: C70_1  and  C1_2 
REMARK    2  A    between atoms: C70_1  and  N12_19 
REMARK    3  A    between atoms: C1_2  and  C2_3 
REMARK    4  A    between atoms: C2_3  and  C3_4 
REMARK       I    between atoms: C3_4  and  N1_6 
REMARK    5  A    between atoms: N1_6  and  C4_7 
REMARK    6  A    between atoms: C4_7  and  C13_8 
REMARK    7  A    between atoms: C4_7  and  C5_10 
REMARK    8  A    between atoms: C13_8  and  C7_9 
ROOT
HETATM    1  C70 BES A 501      41.094  14.896 195.210  1.00  6.08     0.230 C 
ENDROOT
BRANCH   1   2
HETATM    2  C1  BES A 501      41.011  15.539 196.461  1.00  6.71     0.036 C 
BRANCH   2   3
HETATM    3  C2  BES A 501      41.775  16.816 196.629  1.00  9.09     0.098 C 
BRANCH   3   4
HETATM    4  C3  BES A 501      40.812  17.968 196.598  1.00  8.29     0.198 C 
HETATM    5  O3  BES A 501      40.757  18.675 197.579  1.00  7.85    -0.280 OA
HETATM    6  N1  BES A 501      39.996  18.187 195.395  1.00  8.97    -0.248 NA
HETATM    7  H7  BES A 501      39.449  17.278 195.249  1.00  8.27     0.131 HD
BRANCH   6   8
HETATM    8  C4  BES A 501      39.017  19.263 195.241  1.00 10.85     0.169 C 
BRANCH   8   9
HETATM    9  C13 BES A 501      39.445  20.187 194.097  1.00  8.22     0.089 C 
BRANCH   9  10
HETATM   10  C7  BES A 501      40.319  21.338 194.630  1.00 11.21     0.029 A 
HETATM   11  C21 BES A 501      40.581  22.679 193.920  1.00  0.00     0.143 A 
HETATM   12  N22 BES A 501      41.508  23.520 194.818  1.00  0.00    -0.254 N 
HETATM   13  C23 BES A 501      41.819  22.698 196.083  1.00  0.00     0.207 A 
HETATM   14  N24 BES A 501      41.084  21.349 195.967  1.00  0.00    -0.353 N 
HETATM   15  H13 BES A 501      41.101  20.559 196.688  1.00  8.23     0.166 HD
ENDBRANCH   9  10
ENDBRANCH   8   9
BRANCH   8  16
HETATM   16  C5  BES A 501      37.711  18.633 194.880  1.00 10.09     0.192 C 
HETATM   17  O1  BES A 501      37.634  17.376 194.794  1.00  5.58    -0.647 OA
HETATM   18  O4  BES A 501      36.717  19.406 194.719  1.00  5.29    -0.647 OA
ENDBRANCH   8  16
ENDBRANCH   6   8
ENDBRANCH   3   4
ENDBRANCH   2   3
ENDBRANCH   1   2
BRANCH   1  19
HETATM   19  N12 BES A 501      39.884  15.267 194.367  1.00  8.22    -0.079 N 
HETATM   20  H14 BES A 501      39.827  14.617 193.520  1.00  8.22     0.274 HD
HETATM   21  H15 BES A 501      39.977  16.279 194.035  1.00  8.22     0.274 HD
HETATM   22  H6  BES A 501      38.995  15.165 194.955  1.00  8.22     0.274 HD
ENDBRANCH   1  19
TORSDOF 8
REMARK  7 active torsions:
REMARK  status: ('A' for Active; 'I' for Inactive)
REMARK    1  A    between atoms: N2_1  and  C1_2 
REMARK    2  A    between atoms: C1_2  and  C2_3 
REMARK    3  A    between atoms: C2_3  and  C3_4 
REMARK       I    between atoms: C3_4  and  N1_6 
REMARK    4  A    between atoms: N1_6  and  C4_7 
REMARK    5  A    between atoms: C4_7  and  C13_8 
REMARK    6  A    between atoms: C4_7  and  C5_10 
REMARK    7  A    between atoms: C13_8  and  C7_9 
ROOT
HETATM    1  N2  BES   501      38.556  15.667 190.576  1.00  0.00    -0.079 N 
HETATM    2  H1  BES   501      38.475  15.456 189.530  1.00  0.00     0.274 HD
HETATM    3  H2  BES   501      38.398  14.767 191.134  1.00  0.00     0.274 HD
HETATM    4  H1  BES   501      39.533  16.050 190.786  1.00  0.00     0.274 HD
ENDROOT
BRANCH   1   5
HETATM    5  C1  BES   501      37.541  16.668 190.957  1.00  0.00     0.238 C 
BRANCH   5   6
HETATM    6  C2  BES   501      38.133  17.978 191.378  1.00  0.00     0.123 C 
BRANCH   6   7
HETATM    7  C3  BES   501      39.608  17.960 191.097  1.00  0.00     0.199 C 
HETATM    8  O3  BES   501      39.978  18.419 190.040  1.00  0.00    -0.280 OA
HETATM    9  N1  BES   501      40.522  17.400 192.102  1.00  0.00    -0.248 NA
HETATM   10  H7  BES   501      40.191  16.395 192.264  1.00  0.00     0.131 HD
BRANCH   9  11
HETATM   11  C4  BES   501      41.974  17.314 191.947  1.00  0.00     0.169 C 
BRANCH  11  12
HETATM   12  C13 BES   501      42.657  17.772 193.239  1.00  0.00     0.089 C 
BRANCH  12  13
HETATM   13  C7  BES   501      43.158  19.222 193.100  1.00  0.00     0.031 A 
HETATM   14  C21 BES   501      43.006  20.117 191.855  1.00  0.00     0.143 A 
HETATM   15  N22 BES   501      43.653  21.478 192.167  1.00  0.00    -0.254 N 
HETATM   16  C23 BES   501      44.205  21.427 193.604  1.00  0.00     0.209 A 
HETATM   17  N24 BES   501      43.899  20.032 194.180  1.00  0.00    -0.348 N 
HETATM   18  C1  BES   501      44.264  19.540 195.572  1.00  0.00     0.157 C 
ENDBRANCH  12  13
ENDBRANCH  11  12
BRANCH  11  19
HETATM   19  C5  BES   501      42.315  15.880 191.711  1.00  0.00     0.192 C 
HETATM   20  O1  BES   501      41.388  15.028 191.624  1.00  0.00    -0.647 OA
HETATM   21  O4  BES   501      43.544  15.591 191.561  1.00  0.00    -0.647 OA
ENDBRANCH  11  19
ENDBRANCH   9  11
ENDBRANCH   6   7
ENDBRANCH   5   6
ENDBRANCH   1   5
TORSDOF 7
ENDMDL
MODEL 4
REMARK VINA RESULT:    -1.635      3.418      6.691
REMARK INTER + INTRA:          -5.349
REMARK INTER:                  -3.090
REMARK INTRA:                  -2.259
REMARK UNBOUND:                -2.376
REMARK  8 active torsions:
REMARK  status: ('A' for Active; 'I' for Inactive)
REMARK    1  A    between atoms: C70_1  and  C1_2 
REMARK    2  A    between atoms: C70_1  and  N12_19 
REMARK    3  A    between atoms: C1_2  and  C2_3 
REMARK    4  A    between atoms: C2_3  and  C3_4 
REMARK       I    between atoms: C3_4  and  N1_6 
REMARK    5  A    between atoms: N1_6  and  C4_7 
REMARK    6  A    between atoms: C4_7  and  C13_8 
REMARK    7  A    between atoms: C4_7  and  C5_10 
REMARK    8  A    between atoms: C13_8  and  C7_9 
ROOT
HETATM    1  C70 BES A 501      41.754  20.979 194.378  1.00  6.08     0.230 C 
ENDROOT
BRANCH   1   2
HETATM    2  C1  BES A 501      42.738  19.979 194.503  1.00  6.71     0.036 C 
BRANCH   2   3
HETATM    3  C2  BES A 501      42.395  18.774 195.321  1.00  9.09     0.098 C 
BRANCH   3   4
HETATM    4  C3  BES A 501      42.227  17.595 194.406  1.00  8.29     0.198 C 
HETATM    5  O3  BES A 501      43.005  16.676 194.533  1.00  7.85    -0.280 OA
HETATM    6  N1  BES A 501      41.140  17.605 193.417  1.00  8.97    -0.248 NA
HETATM    7  H7  BES A 501      41.301  18.480 192.822  1.00  8.27     0.131 HD
BRANCH   6   8
HETATM    8  C4  BES A 501      40.876  16.527 192.463  1.00 10.85     0.169 C 
BRANCH   8   9
HETATM    9  C13 BES A 501      39.551  15.844 192.814  1.00  8.22     0.089 C 
BRANCH   9  10
HETATM   10  C7  BES A 501      39.746  14.851 193.976  1.00 11.21     0.029 A 
HETATM   11  C21 BES A 501      39.559  13.324 193.902  1.00  0.00     0.143 A 
HETATM   12  N22 BES A 501      39.859  12.740 195.295  1.00  0.00    -0.254 N 
HETATM   13  C23 BES A 501      40.231  13.906 196.230  1.00  0.00     0.207 A 
HETATM   14  N24 BES A 501      40.160  15.211 195.414  1.00  0.00    -0.353 N 
HETATM   15  H13 BES A 501      40.364  16.195 195.783  1.00  8.23     0.166 HD
ENDBRANCH   9  10
ENDBRANCH   8   9
BRANCH   8  16
HETATM   16  C5  BES A 501      40.748  17.146 191.110  1.00 10.09     0.192 C 
HETATM   17  O1  BES A 501      40.883  18.395 190.987  1.00  5.58    -0.647 OA
HETATM   18  O4  BES A 501      40.550  16.366 190.129  1.00  5.29    -0.647 OA
ENDBRANCH   8  16
ENDBRANCH   6   8
ENDBRANCH   3   4
ENDBRANCH   2   3
ENDBRANCH   1   2
BRANCH   1  19
HETATM   19  N12 BES A 501      40.862  20.667 193.186  1.00  8.22    -0.079 N 
HETATM   20  H14 BES A 501      40.720  21.554 192.605  1.00  8.22     0.274 HD
HETATM   21  H15 BES A 501      39.914  20.313 193.533  1.00  8.22     0.274 HD
HETATM   22  H6  BES A 501      41.324  19.915 192.582  1.00  8.22     0.274 HD
ENDBRANCH   1  19
TORSDOF 8
REMARK  7 active torsions:
REMARK  status: ('A' for Active; 'I' for Inactive)
REMARK    1  A    between atoms: N2_1  and  C1_2 
REMARK    2  A    between atoms: C1_2  and  C2_3 
REMARK    3  A    between atoms: C2_3  and  C3_4 
REMARK       I    between atoms: C3_4  and  N1_6 
REMARK    4  A    between atoms: N1_6  and  C4_7 
REMARK    5  A    between atoms: C4_7  and  C13_8 
REMARK    6  A    between atoms: C4_7  and  C5_10 
REMARK    7  A    between atoms: C13_8  and  C7_9 
ROOT
HETATM    1  N2  BES   501      36.677  19.322 197.209  1.00  0.00    -0.079 N 
HETATM    2  H1  BES   501      36.164  19.892 196.463  1.00  0.00     0.274 HD
HETATM    3  H2  BES   501      36.024  19.155 198.041  1.00  0.00     0.274 HD
HETATM    4  H1  BES   501      36.975  18.381 196.795  1.00  0.00     0.274 HD
ENDROOT
BRANCH   1   5
HETATM    5  C1  BES   501      37.871  20.062 197.661  1.00  0.00     0.238 C 
BRANCH   5   6
HETATM    6  C2  BES   501      38.967  20.093 196.641  1.00  0.00     0.123 C 
BRANCH   6   7
HETATM    7  C3  BES   501      38.651  19.106 195.554  1.00  0.00     0.199 C 
HETATM    8  O3  BES   501      38.994  17.958 195.728  1.00  0.00    -0.280 OA
HETATM    9  N1  BES   501      37.948  19.568 194.350  1.00  0.00    -0.248 NA
HETATM   10  H7  BES   501      38.558  20.346 193.941  1.00  0.00     0.131 HD
BRANCH   9  11
HETATM   11  C4  BES   501      37.591  18.713 193.218  1.00  0.00     0.169 C 
BRANCH  11  12
HETATM   12  C13 BES   501      36.146  18.230 193.374  1.00  0.00     0.089 C 
BRANCH  12  13
HETATM   13  C7  BES   501      36.108  16.710 193.621  1.00  0.00     0.031 A 
HETATM   14  C21 BES   501      36.243  16.011 194.987  1.00  0.00     0.143 A 
HETATM   15  N22 BES   501      36.149  14.493 194.756  1.00  0.00    -0.254 N 
HETATM   16  C23 BES   501      35.956  14.251 193.247  1.00  0.00     0.209 A 
HETATM   17  N24 BES   501      35.931  15.622 192.546  1.00  0.00    -0.348 N 
HETATM   18  C1  BES   501      35.761  15.859 191.054  1.00  0.00     0.157 C 
ENDBRANCH  12  13
ENDBRANCH  11  12
BRANCH  11  19
HETATM   19  C5  BES   501      37.684  19.545 191.981  1.00  0.00     0.192 C 
HETATM   20  O1  BES   501      38.002  20.762 192.076  1.00  0.00    -0.647 OA
HETATM   21  O4  BES   501      37.478  18.963 190.871  1.00  0.00    -0.647 OA
ENDBRANCH  11  19
ENDBRANCH   9  11
ENDBRANCH   6   7
ENDBRANCH   5   6
ENDBRANCH   1   5
TORSDOF 7
ENDMDL
MODEL 5
REMARK VINA RESULT:    -1.619      5.361      9.000
REMARK INTER + INTRA:          -5.320
REMARK INTER:                  -3.421
REMARK INTRA:                  -1.899
REMARK UNBOUND:                -2.376
REMARK  8 active torsions:
REMARK  status: ('A' for Active; 'I' for Inactive)
REMARK    1  A    between atoms: C70_1  and  C1_2 
REMARK    2  A    between atoms: C70_1  and  N12_19 
REMARK    3  A    between atoms: C1_2  and  C2_3 
REMARK    4  A    between atoms: C2_3  and  C3_4 
REMARK       I    between atoms: C3_4  and  N1_6 
REMARK    5  A    between atoms: N1_6  and  C4_7 
REMARK    6  A    between atoms: C4_7  and  C13_8 
REMARK    7  A    between atoms: C4_7  and  C5_10 
REMARK    8  A    between atoms: C13_8  and  C7_9 
ROOT
HETATM    1  C70 BES A 501      41.398   7.299 202.692  1.00  6.08     0.230 C 
ENDROOT
BRANCH   1   2
HETATM    2  C1  BES A 501      41.868   8.446 202.022  1.00  6.71     0.036 C 
BRANCH   2   3
HETATM    3  C2  BES A 501      42.164   8.315 200.561  1.00  9.09     0.098 C 
BRANCH   3   4
HETATM    4  C3  BES A 501      42.370   9.685 199.980  1.00  8.29     0.198 C 
HETATM    5  O3  BES A 501      43.236  10.374 200.470  1.00  7.85    -0.280 OA
HETATM    6  N1  BES A 501      41.527  10.120 198.856  1.00  8.97    -0.248 NA
HETATM    7  H7  BES A 501      40.519  10.043 199.206  1.00  8.27     0.131 HD
BRANCH   6   8
HETATM    8  C4  BES A 501      41.619  11.429 198.209  1.00 10.85     0.169 C 
BRANCH   8   9
HETATM    9  C13 BES A 501      42.184  11.264 196.795  1.00  8.22     0.089 C 
BRANCH   9  10
HETATM   10  C7  BES A 501      42.191   9.778 196.385  1.00 11.21     0.029 A 
HETATM   11  C21 BES A 501      43.440   8.931 196.078  1.00  0.00     0.143 A 
HETATM   12  N22 BES A 501      42.972   7.510 195.714  1.00  0.00    -0.254 N 
HETATM   13  C23 BES A 501      41.434   7.479 195.796  1.00  0.00     0.207 A 
HETATM   14  N24 BES A 501      40.951   8.882 196.211  1.00  0.00    -0.353 N 
HETATM   15  H13 BES A 501      39.934   9.181 196.354  1.00  8.23     0.166 HD
ENDBRANCH   9  10
ENDBRANCH   8   9
BRANCH   8  16
HETATM   16  C5  BES A 501      40.233  11.975 198.105  1.00 10.09     0.192 C 
HETATM   17  O1  BES A 501      39.940  13.039 198.720  1.00  5.58    -0.647 OA
HETATM   18  O4  BES A 501      39.417  11.357 197.355  1.00  5.29    -0.647 OA
ENDBRANCH   8  16
ENDBRANCH   6   8
ENDBRANCH   3   4
ENDBRANCH   2   3
ENDBRANCH   1   2
BRANCH   1  19
HETATM   19  N12 BES A 501      39.954   7.517 203.120  1.00  8.22    -0.079 N 
HETATM   20  H14 BES A 501      39.933   8.087 204.024  1.00  8.22     0.274 HD
HETATM   21  H15 BES A 501      39.484   6.571 203.283  1.00  8.22     0.274 HD
HETATM   22  H6  BES A 501      39.432   8.048 202.352  1.00  8.22     0.274 HD
ENDBRANCH   1  19
TORSDOF 8
REMARK  7 active torsions:
REMARK  status: ('A' for Active; 'I' for Inactive)
REMARK    1  A    between atoms: N2_1  and  C1_2 
REMARK    2  A    between atoms: C1_2  and  C2_3 
REMARK    3  A    between atoms: C2_3  and  C3_4 
REMARK       I    between atoms: C3_4  and  N1_6 
REMARK    4  A    between atoms: N1_6  and  C4_7 
REMARK    5  A    between atoms: C4_7  and  C13_8 
REMARK    6  A    between atoms: C4_7  and  C5_10 
REMARK    7  A    between atoms: C13_8  and  C7_9 
ROOT
HETATM    1  N2  BES   501      38.051  13.117 202.089  1.00  0.00    -0.079 N 
HETATM    2  H1  BES   501      37.585  13.837 202.729  1.00  0.00     0.274 HD
HETATM    3  H2  BES   501      37.764  12.132 202.393  1.00  0.00     0.274 HD
HETATM    4  H1  BES   501      37.739  13.284 201.080  1.00  0.00     0.274 HD
ENDROOT
BRANCH   1   5
HETATM    5  C1  BES   501      39.518  13.253 202.181  1.00  0.00     0.238 C 
BRANCH   5   6
HETATM    6  C2  BES   501      40.243  11.954 202.008  1.00  0.00     0.123 C 
BRANCH   6   7
HETATM    7  C3  BES   501      39.237  10.850 201.852  1.00  0.00     0.199 C 
HETATM    8  O3  BES   501      38.841  10.311 202.861  1.00  0.00    -0.280 OA
HETATM    9  N1  BES   501      38.782  10.482 200.504  1.00  0.00    -0.248 NA
HETATM   10  H7  BES   501      39.668  10.219 199.963  1.00  0.00     0.131 HD
BRANCH   9  11
HETATM   11  C4  BES   501      37.817   9.421 200.215  1.00  0.00     0.169 C 
BRANCH  11  12
HETATM   12  C13 BES   501      36.875   9.874 199.096  1.00  0.00     0.089 C 
BRANCH  12  13
HETATM   13  C7  BES   501      36.173  11.190 199.480  1.00  0.00     0.031 A 
HETATM   14  C21 BES   501      36.408  12.566 198.829  1.00  0.00     0.143 A 
HETATM   15  N22 BES   501      35.494  13.586 199.531  1.00  0.00    -0.254 N 
HETATM   16  C23 BES   501      34.692  12.843 200.615  1.00  0.00     0.209 A 
HETATM   17  N24 BES   501      35.113  11.361 200.584  1.00  0.00    -0.348 N 
HETATM   18  C1  BES   501      34.575  10.261 201.485  1.00  0.00     0.157 C 
ENDBRANCH  12  13
ENDBRANCH  11  12
BRANCH  11  19
HETATM   19  C5  BES   501      38.586   8.233 199.739  1.00  0.00     0.192 C 
HETATM   20  O1  BES   501      38.613   7.188 200.446  1.00  0.00    -0.647 OA
HETATM   21  O4  BES   501      39.148   8.320 198.602  1.00  0.00    -0.647 OA
ENDBRANCH  11  19
ENDBRANCH   9  11
ENDBRANCH   6   7
ENDBRANCH   5   6
ENDBRANCH   1   5
TORSDOF 7
ENDMDL
MODEL 6
REMARK VINA RESULT:    -1.616      2.631      5.296
REMARK INTER + INTRA:          -5.315
REMARK INTER:                  -3.201
REMARK INTRA:                  -2.114
REMARK UNBOUND:                -2.376
REMARK  8 active torsions:
REMARK  status: ('A' for Active; 'I' for Inactive)
REMARK    1  A    between atoms: C70_1  and  C1_2 
REMARK    2  A    between atoms: C70_1  and  N12_19 
REMARK    3  A    between atoms: C1_2  and  C2_3 
REMARK    4  A    between atoms: C2_3  and  C3_4 
REMARK       I    between atoms: C3_4  and  N1_6 
REMARK    5  A    between atoms: N1_6  and  C4_7 
REMARK    6  A    between atoms: C4_7  and  C13_8 
REMARK    7  A    between atoms: C4_7  and  C5_10 
REMARK    8  A    between atoms: C13_8  and  C7_9 
ROOT
HETATM    1  C70 BES A 501      38.461  14.993 194.123  1.00  6.08     0.230 C 
ENDROOT
BRANCH   1   2
HETATM    2  C1  BES A 501      39.821  15.341 194.245  1.00  6.71     0.036 C 
BRANCH   2   3
HETATM    3  C2  BES A 501      40.158  16.503 195.126  1.00  9.09     0.098 C 
BRANCH   3   4
HETATM    4  C3  BES A 501      40.744  15.989 196.410  1.00  8.29     0.198 C 
HETATM    5  O3  BES A 501      41.951  15.974 196.504  1.00  7.85    -0.280 OA
HETATM    6  N1  BES A 501      39.842  15.540 197.480  1.00  8.97    -0.248 NA
HETATM    7  H7  BES A 501      39.241  14.769 197.044  1.00  8.27     0.131 HD
BRANCH   6   8
HETATM    8  C4  BES A 501      40.285  15.010 198.770  1.00 10.85     0.169 C 
BRANCH   8   9
HETATM    9  C13 BES A 501      39.703  15.861 199.902  1.00  8.22     0.089 C 
BRANCH   9  10
HETATM   10  C7  BES A 501      39.680  17.349 199.502  1.00 11.21     0.029 A 
HETATM   11  C21 BES A 501      40.845  18.345 199.656  1.00  0.00     0.143 A 
HETATM   12  N22 BES A 501      40.373  19.712 199.127  1.00  0.00    -0.254 N 
HETATM   13  C23 BES A 501      38.917  19.562 198.648  1.00  0.00     0.207 A 
HETATM   14  N24 BES A 501      38.489  18.100 198.880  1.00  0.00    -0.353 N 
HETATM   15  H13 BES A 501      37.532  17.681 198.649  1.00  8.23     0.166 HD
ENDBRANCH   9  10
ENDBRANCH   8   9
BRANCH   8  16
HETATM   16  C5  BES A 501      39.746  13.622 198.893  1.00 10.09     0.192 C 
HETATM   17  O1  BES A 501      38.947  13.189 198.017  1.00  5.58    -0.647 OA
HETATM   18  O4  BES A 501      40.161  12.921 199.867  1.00  5.29    -0.647 OA
ENDBRANCH   8  16
ENDBRANCH   6   8
ENDBRANCH   3   4
ENDBRANCH   2   3
ENDBRANCH   1   2
BRANCH   1  19
HETATM   19  N12 BES A 501      38.090  14.002 195.215  1.00  8.22    -0.079 N 
HETATM   20  H14 BES A 501      38.909  13.898 195.895  1.00  8.22     0.274 HD
HETATM   21  H15 BES A 501      37.869  13.053 194.776  1.00  8.22     0.274 HD
HETATM   22  H6  BES A 501      37.232  14.359 195.744  1.00  8.22     0.274 HD
ENDBRANCH   1  19
TORSDOF 8
REMARK  7 active torsions:
REMARK  status: ('A' for Active; 'I' for Inactive)
REMARK    1  A    between atoms: N2_1  and  C1_2 
REMARK    2  A    between atoms: C1_2  and  C2_3 
REMARK    3  A    between atoms: C2_3  and  C3_4 
REMARK       I    between atoms: C3_4  and  N1_6 
REMARK    4  A    between atoms: N1_6  and  C4_7 
REMARK    5  A    between atoms: C4_7  and  C13_8 
REMARK    6  A    between atoms: C4_7  and  C5_10 
REMARK    7  A    between atoms: C13_8  and  C7_9 
ROOT
HETATM    1  N2  BES   501      35.101  19.228 198.948  1.00  0.00    -0.079 N 
HETATM    2  H1  BES   501      35.266  18.205 198.682  1.00  0.00     0.274 HD
HETATM    3  H2  BES   501      36.024  19.668 199.263  1.00  0.00     0.274 HD
HETATM    4  H1  BES   501      34.725  19.759 198.099  1.00  0.00     0.274 HD
ENDROOT
BRANCH   1   5
HETATM    5  C1  BES   501      34.119  19.299 200.048  1.00  0.00     0.238 C 
BRANCH   5   6
HETATM    6  C2  BES   501      34.260  18.184 201.038  1.00  0.00     0.123 C 
BRANCH   6   7
HETATM    7  C3  BES   501      35.393  17.295 200.614  1.00  0.00     0.199 C 
HETATM    8  O3  BES   501      36.489  17.537 201.065  1.00  0.00    -0.280 OA
HETATM    9  N1  BES   501      35.124  16.185 199.689  1.00  0.00    -0.248 NA
HETATM   10  H7  BES   501      34.695  16.634 198.817  1.00  0.00     0.131 HD
BRANCH   9  11
HETATM   11  C4  BES   501      36.138  15.255 199.192  1.00  0.00     0.169 C 
BRANCH  11  12
HETATM   12  C13 BES   501      35.711  13.816 199.499  1.00  0.00     0.089 C 
BRANCH  12  13
HETATM   13  C7  BES   501      36.552  13.238 200.652  1.00  0.00     0.031 A 
HETATM   14  C21 BES   501      37.104  14.027 201.855  1.00  0.00     0.143 A 
HETATM   15  N22 BES   501      37.882  13.046 202.750  1.00  0.00    -0.254 N 
HETATM   16  C23 BES   501      37.811  11.650 202.103  1.00  0.00     0.209 A 
HETATM   17  N24 BES   501      36.989  11.770 200.806  1.00  0.00    -0.348 N 
HETATM   18  C1  BES   501      36.666  10.636 199.846  1.00  0.00     0.157 C 
ENDBRANCH  12  13
ENDBRANCH  11  12
BRANCH  11  19
HETATM   19  C5  BES   501      36.213  15.424 197.710  1.00  0.00     0.192 C 
HETATM   20  O1  BES   501      37.020  16.262 197.222  1.00  0.00    -0.647 OA
HETATM   21  O4  BES   501      35.478  14.669 197.000  1.00  0.00    -0.647 OA
ENDBRANCH  11  19
ENDBRANCH   9  11
ENDBRANCH   6   7
ENDBRANCH   5   6
ENDBRANCH   1   5
TORSDOF 7
ENDMDL
MODEL 7
REMARK VINA RESULT:    -1.604      3.841      6.222
REMARK INTER + INTRA:          -5.293
REMARK INTER:                  -2.957
REMARK INTRA:                  -2.336
REMARK UNBOUND:                -2.376
REMARK  8 active torsions:
REMARK  status: ('A' for Active; 'I' for Inactive)
REMARK    1  A    between atoms: C70_1  and  C1_2 
REMARK    2  A    between atoms: C70_1  and  N12_19 
REMARK    3  A    between atoms: C1_2  and  C2_3 
REMARK    4  A    between atoms: C2_3  and  C3_4 
REMARK       I    between atoms: C3_4  and  N1_6 
REMARK    5  A    between atoms: N1_6  and  C4_7 
REMARK    6  A    between atoms: C4_7  and  C13_8 
REMARK    7  A    between atoms: C4_7  and  C5_10 
REMARK    8  A    between atoms: C13_8  and  C7_9 
ROOT
HETATM    1  C70 BES A 501      36.564  19.018 195.907  1.00  6.08     0.230 C 
ENDROOT
BRANCH   1   2
HETATM    2  C1  BES A 501      36.787  19.065 197.297  1.00  6.71     0.036 C 
BRANCH   2   3
HETATM    3  C2  BES A 501      36.865  17.761 198.026  1.00  9.09     0.098 C 
BRANCH   3   4
HETATM    4  C3  BES A 501      35.758  17.700 199.039  1.00  8.29     0.198 C 
HETATM    5  O3  BES A 501      36.066  17.769 200.207  1.00  7.85    -0.280 OA
HETATM    6  N1  BES A 501      34.369  17.567 198.575  1.00  8.97    -0.248 NA
HETATM    7  H7  BES A 501      34.347  16.673 197.988  1.00  8.27     0.131 HD
BRANCH   6   8
HETATM    8  C4  BES A 501      33.204  17.487 199.456  1.00 10.85     0.169 C 
BRANCH   8   9
HETATM    9  C13 BES A 501      32.236  18.630 199.133  1.00  8.22     0.089 C 
BRANCH   9  10
HETATM   10  C7  BES A 501      32.582  19.262 197.771  1.00 11.21     0.029 A 
HETATM   11  C21 BES A 501      33.121  20.687 197.546  1.00  0.00     0.143 A 
HETATM   12  N22 BES A 501      33.321  20.885 196.032  1.00  0.00    -0.254 N 
HETATM   13  C23 BES A 501      32.904  19.583 195.321  1.00  0.00     0.207 A 
HETATM   14  N24 BES A 501      32.447  18.580 196.397  1.00  0.00    -0.353 N 
HETATM   15  H13 BES A 501      32.098  17.584 196.221  1.00  8.23     0.166 HD
ENDBRANCH   9  10
ENDBRANCH   8   9
BRANCH   8  16
HETATM   16  C5  BES A 501      32.518  16.190 199.175  1.00 10.09     0.192 C 
HETATM   17  O1  BES A 501      33.018  15.118 199.615  1.00  5.58    -0.647 OA
HETATM   18  O4  BES A 501      31.422  16.238 198.535  1.00  5.29    -0.647 OA
ENDBRANCH   8  16
ENDBRANCH   6   8
ENDBRANCH   3   4
ENDBRANCH   2   3
ENDBRANCH   1   2
BRANCH   1  19
HETATM   19  N12 BES A 501      35.947  17.677 195.538  1.00  8.22    -0.079 N 
HETATM   20  H14 BES A 501      36.242  17.411 194.544  1.00  8.22     0.274 HD
HETATM   21  H15 BES A 501      34.882  17.748 195.587  1.00  8.22     0.274 HD
HETATM   22  H6  BES A 501      36.286  16.928 196.222  1.00  8.22     0.274 HD
ENDBRANCH   1  19
TORSDOF 8
REMARK  7 active torsions:
REMARK  status: ('A' for Active; 'I' for Inactive)
REMARK    1  A    between atoms: N2_1  and  C1_2 
REMARK    2  A    between atoms: C1_2  and  C2_3 
REMARK    3  A    between atoms: C2_3  and  C3_4 
REMARK       I    between atoms: C3_4  and  N1_6 
REMARK    4  A    between atoms: N1_6  and  C4_7 
REMARK    5  A    between atoms: C4_7  and  C13_8 
REMARK    6  A    between atoms: C4_7  and  C5_10 
REMARK    7  A    between atoms: C13_8  and  C7_9 
ROOT
HETATM    1  N2  BES   501      31.036  14.457 196.220  1.00  0.00    -0.079 N 
HETATM    2  H1  BES   501      31.485  15.359 196.580  1.00  0.00     0.274 HD
HETATM    3  H2  BES   501      30.089  14.315 196.697  1.00  0.00     0.274 HD
HETATM    4  H1  BES   501      30.895  14.527 195.162  1.00  0.00     0.274 HD
ENDROOT
BRANCH   1   5
HETATM    5  C1  BES   501      31.918  13.313 196.524  1.00  0.00     0.238 C 
BRANCH   5   6
HETATM    6  C2  BES   501      33.362  13.588 196.240  1.00  0.00     0.123 C 
BRANCH   6   7
HETATM    7  C3  BES   501      33.484  14.938 195.592  1.00  0.00     0.199 C 
HETATM    8  O3  BES   501      33.909  15.845 196.272  1.00  0.00    -0.280 OA
HETATM    9  N1  BES   501      33.092  15.094 194.185  1.00  0.00    -0.248 NA
HETATM   10  H7  BES   501      32.070  14.779 194.134  1.00  0.00     0.131 HD
BRANCH   9  11
HETATM   11  C4  BES   501      33.151  16.353 193.442  1.00  0.00     0.169 C 
BRANCH  11  12
HETATM   12  C13 BES   501      33.846  16.124 192.096  1.00  0.00     0.089 C 
BRANCH  12  13
HETATM   13  C7  BES   501      35.252  16.752 192.101  1.00  0.00     0.031 A 
HETATM   14  C21 BES   501      36.585  15.987 192.201  1.00  0.00     0.143 A 
HETATM   15  N22 BES   501      37.728  17.017 192.169  1.00  0.00    -0.254 N 
HETATM   16  C23 BES   501      37.103  18.420 192.049  1.00  0.00     0.209 A 
HETATM   17  N24 BES   501      35.572  18.255 192.006  1.00  0.00    -0.348 N 
HETATM   18  C1  BES   501      34.556  19.380 191.892  1.00  0.00     0.157 C 
ENDBRANCH  12  13
ENDBRANCH  11  12
BRANCH  11  19
HETATM   19  C5  BES   501      31.746  16.788 193.185  1.00  0.00     0.192 C 
HETATM   20  O1  BES   501      30.932  16.856 194.146  1.00  0.00    -0.647 OA
HETATM   21  O4  BES   501      31.447  17.118 191.994  1.00  0.00    -0.647 OA
ENDBRANCH  11  19
ENDBRANCH   9  11
ENDBRANCH   6   7
ENDBRANCH   5   6
ENDBRANCH   1   5
TORSDOF 7
ENDMDL
MODEL 8
REMARK VINA RESULT:    -1.603      2.499      4.747
REMARK INTER + INTRA:          -5.291
REMARK INTER:                  -3.026
REMARK INTRA:                  -2.265
REMARK UNBOUND:                -2.376
REMARK  8 active torsions:
REMARK  status: ('A' for Active; 'I' for Inactive)
REMARK    1  A    between atoms: C70_1  and  C1_2 
REMARK    2  A    between atoms: C70_1  and  N12_19 
REMARK    3  A    between atoms: C1_2  and  C2_3 
REMARK    4  A    between atoms: C2_3  and  C3_4 
REMARK       I    between atoms: C3_4  and  N1_6 
REMARK    5  A    between atoms: N1_6  and  C4_7 
REMARK    6  A    between atoms: C4_7  and  C13_8 
REMARK    7  A    between atoms: C4_7  and  C5_10 
REMARK    8  A    between atoms: C13_8  and  C7_9 
ROOT
HETATM    1  C70 BES A 501      34.635  14.206 192.835  1.00  6.08     0.230 C 
ENDROOT
BRANCH   1   2
HETATM    2  C1  BES A 501      33.755  15.248 193.191  1.00  6.71     0.036 C 
BRANCH   2   3
HETATM    3  C2  BES A 501      33.991  16.590 192.571  1.00  9.09     0.098 C 
BRANCH   3   4
HETATM    4  C3  BES A 501      34.746  17.450 193.543  1.00  8.29     0.198 C 
HETATM    5  O3  BES A 501      35.191  18.498 193.131  1.00  7.85    -0.280 OA
HETATM    6  N1  BES A 501      34.906  16.992 194.931  1.00  8.97    -0.248 NA
HETATM    7  H7  BES A 501      35.391  16.041 194.866  1.00  8.27     0.131 HD
BRANCH   6   8
HETATM    8  C4  BES A 501      35.626  17.729 195.969  1.00 10.85     0.169 C 
BRANCH   8   9
HETATM    9  C13 BES A 501      34.793  17.752 197.255  1.00  8.22     0.089 C 
BRANCH   9  10
HETATM   10  C7  BES A 501      34.616  16.325 197.809  1.00 11.21     0.029 A 
HETATM   11  C21 BES A 501      34.904  15.874 199.253  1.00  0.00     0.143 A 
HETATM   12  N22 BES A 501      34.586  14.370 199.353  1.00  0.00    -0.254 N 
HETATM   13  C23 BES A 501      34.103  13.892 197.970  1.00  0.00     0.207 A 
HETATM   14  N24 BES A 501      34.121  15.101 197.016  1.00  0.00    -0.353 N 
HETATM   15  H13 BES A 501      33.840  15.092 195.984  1.00  8.23     0.166 HD
ENDBRANCH   9  10
ENDBRANCH   8   9
BRANCH   8  16
HETATM   16  C5  BES A 501      36.898  16.994 196.241  1.00 10.09     0.192 C 
HETATM   17  O1  BES A 501      37.060  15.839 195.758  1.00  5.58    -0.647 OA
HETATM   18  O4  BES A 501      37.787  17.598 196.917  1.00  5.29    -0.647 OA
ENDBRANCH   8  16
ENDBRANCH   6   8
ENDBRANCH   3   4
ENDBRANCH   2   3
ENDBRANCH   1   2
BRANCH   1  19
HETATM   19  N12 BES A 501      35.598  13.942 193.983  1.00  8.22    -0.079 N 
HETATM   20  H14 BES A 501      35.092  13.401 194.755  1.00  8.22     0.274 HD
HETATM   21  H15 BES A 501      35.952  14.872 194.373  1.00  8.22     0.274 HD
HETATM   22  H6  BES A 501      36.426  13.365 193.628  1.00  8.22     0.274 HD
ENDBRANCH   1  19
TORSDOF 8
REMARK  7 active torsions:
REMARK  status: ('A' for Active; 'I' for Inactive)
REMARK    1  A    between atoms: N2_1  and  C1_2 
REMARK    2  A    between atoms: C1_2  and  C2_3 
REMARK    3  A    between atoms: C2_3  and  C3_4 
REMARK       I    between atoms: C3_4  and  N1_6 
REMARK    4  A    between atoms: N1_6  and  C4_7 
REMARK    5  A    between atoms: C4_7  and  C13_8 
REMARK    6  A    between atoms: C4_7  and  C5_10 
REMARK    7  A    between atoms: C13_8  and  C7_9 
ROOT
HETATM    1  N2  BES   501      39.524  17.194 194.171  1.00  0.00    -0.079 N 
HETATM    2  H1  BES   501      40.114  16.334 193.932  1.00  0.00     0.274 HD
HETATM    3  H2  BES   501      38.946  16.996 195.050  1.00  0.00     0.274 HD
HETATM    4  H1  BES   501      40.169  18.029 194.350  1.00  0.00     0.274 HD
ENDROOT
BRANCH   1   5
HETATM    5  C1  BES   501      38.620  17.501 193.046  1.00  0.00     0.238 C 
BRANCH   5   6
HETATM    6  C2  BES   501      38.076  16.277 192.374  1.00  0.00     0.123 C 
BRANCH   6   7
HETATM    7  C3  BES   501      38.944  15.103 192.723  1.00  0.00     0.199 C 
HETATM    8  O3  BES   501      39.926  14.914 192.040  1.00  0.00    -0.280 OA
HETATM    9  N1  BES   501      38.573  14.251 193.861  1.00  0.00    -0.248 NA
HETATM   10  H7  BES   501      37.586  13.897 193.646  1.00  0.00     0.131 HD
BRANCH   9  11
HETATM   11  C4  BES   501      39.325  13.074 194.297  1.00  0.00     0.169 C 
BRANCH  11  12
HETATM   12  C13 BES   501      39.180  12.904 195.812  1.00  0.00     0.089 C 
BRANCH  12  13
HETATM   13  C7  BES   501      39.952  14.009 196.556  1.00  0.00     0.031 A 
HETATM   14  C21 BES   501      41.277  14.650 196.103  1.00  0.00     0.143 A 
HETATM   15  N22 BES   501      41.679  15.703 197.151  1.00  0.00    -0.254 N 
HETATM   16  C23 BES   501      40.603  15.715 198.253  1.00  0.00     0.209 A 
HETATM   17  N24 BES   501      39.536  14.667 197.885  1.00  0.00    -0.348 N 
HETATM   18  C1  BES   501      38.290  14.340 198.692  1.00  0.00     0.157 C 
ENDBRANCH  12  13
ENDBRANCH  11  12
BRANCH  11  19
HETATM   19  C5  BES   501      38.725  11.884 193.624  1.00  0.00     0.192 C 
HETATM   20  O1  BES   501      37.517  11.593 193.842  1.00  0.00    -0.647 OA
HETATM   21  O4  BES   501      39.463  11.238 192.816  1.00  0.00    -0.647 OA
ENDBRANCH  11  19
ENDBRANCH   9  11
ENDBRANCH   6   7
ENDBRANCH   5   6
ENDBRANCH   1   5
TORSDOF 7
ENDMDL
MODEL 9
REMARK VINA RESULT:    -1.600      4.944      7.586
REMARK INTER + INTRA:          -5.286
REMARK INTER:                  -3.033
REMARK INTRA:                  -2.253
REMARK UNBOUND:                -2.376
REMARK  8 active torsions:
REMARK  status: ('A' for Active; 'I' for Inactive)
REMARK    1  A    between atoms: C70_1  and  C1_2 
REMARK    2  A    between atoms: C70_1  and  N12_19 
REMARK    3  A    between atoms: C1_2  and  C2_3 
REMARK    4  A    between atoms: C2_3  and  C3_4 
REMARK       I    between atoms: C3_4  and  N1_6 
REMARK    5  A    between atoms: N1_6  and  C4_7 
REMARK    6  A    between atoms: C4_7  and  C13_8 
REMARK    7  A    between atoms: C4_7  and  C5_10 
REMARK    8  A    between atoms: C13_8  and  C7_9 
ROOT
HETATM    1  C70 BES A 501      36.013  19.283 194.457  1.00  6.08     0.230 C 
ENDROOT
BRANCH   1   2
HETATM    2  C1  BES A 501      37.338  19.762 194.471  1.00  6.71     0.036 C 
BRANCH   2   3
HETATM    3  C2  BES A 501      37.586  21.115 193.881  1.00  9.09     0.098 C 
BRANCH   3   4
HETATM    4  C3  BES A 501      38.049  22.043 194.967  1.00  8.29     0.198 C 
HETATM    5  O3  BES A 501      37.467  23.098 195.084  1.00  7.85    -0.280 OA
HETATM    6  N1  BES A 501      39.166  21.634 195.831  1.00  8.97    -0.248 NA
HETATM    7  H7  BES A 501      39.986  21.444 195.170  1.00  8.27     0.131 HD
BRANCH   6   8
HETATM    8  C4  BES A 501      39.718  22.448 196.915  1.00 10.85     0.169 C 
BRANCH   8   9
HETATM    9  C13 BES A 501      39.297  21.858 198.265  1.00  8.22     0.089 C 
BRANCH   9  10
HETATM   10  C7  BES A 501      38.664  20.467 198.073  1.00 11.21     0.029 A 
HETATM   11  C21 BES A 501      37.182  20.110 198.293  1.00  0.00     0.143 A 
HETATM   12  N22 BES A 501      37.003  18.612 197.984  1.00  0.00    -0.254 N 
HETATM   13  C23 BES A 501      38.375  18.043 197.573  1.00  0.00     0.207 A 
HETATM   14  N24 BES A 501      39.401  19.191 197.628  1.00  0.00    -0.353 N 
HETATM   15  H13 BES A 501      40.443  19.114 197.398  1.00  8.23     0.166 HD
ENDBRANCH   9  10
ENDBRANCH   8   9
BRANCH   8  16
HETATM   16  C5  BES A 501      41.206  22.383 196.811  1.00 10.09     0.192 C 
HETATM   17  O1  BES A 501      41.862  23.450 196.649  1.00  5.58    -0.647 OA
HETATM   18  O4  BES A 501      41.750  21.243 196.938  1.00  5.29    -0.647 OA
ENDBRANCH   8  16
ENDBRANCH   6   8
ENDBRANCH   3   4
ENDBRANCH   2   3
ENDBRANCH   1   2
BRANCH   1  19
HETATM   19  N12 BES A 501      36.017  17.772 194.633  1.00  8.22    -0.079 N 
HETATM   20  H14 BES A 501      35.945  17.534 195.673  1.00  8.22     0.274 HD
HETATM   21  H15 BES A 501      36.926  17.369 194.237  1.00  8.22     0.274 HD
HETATM   22  H6  BES A 501      35.184  17.350 194.112  1.00  8.22     0.274 HD
ENDBRANCH   1  19
TORSDOF 8
REMARK  7 active torsions:
REMARK  status: ('A' for Active; 'I' for Inactive)
REMARK    1  A    between atoms: N2_1  and  C1_2 
REMARK    2  A    between atoms: C1_2  and  C2_3 
REMARK    3  A    between atoms: C2_3  and  C3_4 
REMARK       I    between atoms: C3_4  and  N1_6 
REMARK    4  A    between atoms: N1_6  and  C4_7 
REMARK    5  A    between atoms: C4_7  and  C13_8 
REMARK    6  A    between atoms: C4_7  and  C5_10 
REMARK    7  A    between atoms: C13_8  and  C7_9 
ROOT
HETATM    1  N2  BES   501      43.843  22.225 194.627  1.00  0.00    -0.079 N 
HETATM    2  H1  BES   501      43.584  21.325 194.110  1.00  0.00     0.274 HD
HETATM    3  H2  BES   501      43.038  22.509 195.273  1.00  0.00     0.274 HD
HETATM    4  H1  BES   501      44.725  22.059 195.210  1.00  0.00     0.274 HD
ENDROOT
BRANCH   1   5
HETATM    5  C1  BES   501      44.093  23.301 193.649  1.00  0.00     0.238 C 
BRANCH   5   6
HETATM    6  C2  BES   501      43.055  23.373 192.572  1.00  0.00     0.123 C 
BRANCH   6   7
HETATM    7  C3  BES   501      41.913  22.467 192.932  1.00  0.00     0.199 C 
HETATM    8  O3  BES   501      40.947  22.971 193.459  1.00  0.00    -0.280 OA
HETATM    9  N1  BES   501      42.015  21.033 192.631  1.00  0.00    -0.248 NA
HETATM   10  H7  BES   501      42.896  20.694 193.136  1.00  0.00     0.131 HD
BRANCH   9  11
HETATM   11  C4  BES   501      40.982  20.044 192.939  1.00  0.00     0.169 C 
BRANCH  11  12
HETATM   12  C13 BES   501      40.875  19.036 191.791  1.00  0.00     0.089 C 
BRANCH  12  13
HETATM   13  C7  BES   501      39.399  18.755 191.454  1.00  0.00     0.031 A 
HETATM   14  C21 BES   501      38.611  17.485 191.827  1.00  0.00     0.143 A 
HETATM   15  N22 BES   501      37.177  17.640 191.289  1.00  0.00    -0.254 N 
HETATM   16  C23 BES   501      37.077  19.006 190.584  1.00  0.00     0.209 A 
HETATM   17  N24 BES   501      38.451  19.694 190.687  1.00  0.00    -0.348 N 
HETATM   18  C1  BES   501      38.808  21.063 190.127  1.00  0.00     0.157 C 
ENDBRANCH  12  13
ENDBRANCH  11  12
BRANCH  11  19
HETATM   19  C5  BES   501      41.410  19.318 194.172  1.00  0.00     0.192 C 
HETATM   20  O1  BES   501      40.536  18.805 194.924  1.00  0.00    -0.647 OA
HETATM   21  O4  BES   501      42.659  19.213 194.382  1.00  0.00    -0.647 OA
ENDBRANCH  11  19
ENDBRANCH   9  11
ENDBRANCH   6   7
ENDBRANCH   5   6
ENDBRANCH   1   5
TORSDOF 7
ENDMDL
