MODEL 1
REMARK VINA RESULT:    -1.738      0.000      0.000
REMARK INTER + INTRA:          -5.320
REMARK INTER:                  -3.160
REMARK INTRA:                  -2.160
REMARK UNBOUND:                -2.160
REMARK  7 active torsions:
REMARK  status: ('A' for Active; 'I' for Inactive)
REMARK    1  A    between atoms: N2_1  and  C1_2 
REMARK    2  A    between atoms: C1_2  and  C2_3 
REMARK    3  A    between atoms: C2_3  and  C3_4 
REMARK       I    between atoms: C3_4  and  N1_6 
REMARK    4  A    between atoms: N1_6  and  C4_7 
REMARK    5  A    between atoms: C4_7  and  C13_8 
REMARK    6  A    between atoms: C4_7  and  C5_10 
REMARK    7  A    between atoms: C13_8  and  C7_9 
ROOT
HETATM    1  N2  BES   501      36.857  15.230 198.198  1.00  0.00    -0.079 N 
HETATM    2  H12 BES   501      36.497  16.143 198.623  1.00  0.00     0.274 HD
HETATM    3  H13 BES   501      36.036  14.562 198.041  1.00  0.00     0.274 HD
HETATM    4  H2  BES   501      37.333  15.435 197.262  1.00  0.00     0.274 HD
ENDROOT
BRANCH   1   5
HETATM    5  C1  BES   501      37.802  14.623 199.095  1.00  0.00     0.238 C 
BRANCH   5   6
HETATM    6  C2  BES   501      38.569  13.520 198.398  1.00  0.00     0.123 C 
BRANCH   6   7
HETATM    7  C3  BES   501      38.340  13.590 196.899  1.00  0.00     0.199 C 
HETATM    8  O3  BES   501      37.573  12.817 196.337  1.00  0.00    -0.280 OA
HETATM    9  N1  BES   501      39.094  14.583 196.125  1.00  0.00    -0.248 NA
HETATM   10  H7  BES   501      40.132  14.377 196.287  1.00  0.00     0.131 HD
BRANCH   9  11
HETATM   11  C4  BES   501      38.904  14.687 194.664  1.00  0.00     0.169 C 
BRANCH  11  12
HETATM   12  C13 BES   501      38.476  16.103 194.273  1.00  0.00     0.091 C 
BRANCH  12  13
HETATM   13  C7  BES   501      37.041  16.375 194.759  1.00  0.00     0.053 A 
HETATM   14  C14 BES   501      35.829  15.443 194.570  1.00  0.00     0.116 A 
HETATM   15  N15 BES   501      34.604  16.117 195.213  1.00  0.00    -0.359 N 
HETATM   16  C16 BES   501      35.059  17.467 195.802  1.00  0.00     0.207 A 
HETATM   17  H13 BES   501      33.611  15.719 195.247  1.00  0.00     0.166 HD
HETATM   18  N17 BES   501      36.564  17.625 195.521  1.00  0.00    -0.247 N 
ENDBRANCH  12  13
ENDBRANCH  11  12
BRANCH  11  19
HETATM   19  C5  BES   501      40.131  14.199 193.910  1.00  0.00     0.192 C 
HETATM   20  O1  BES   501      40.007  13.388 192.954  1.00  0.00    -0.647 OA
HETATM   21  O4  BES   501      41.280  14.614 194.224  1.00  0.00    -0.647 OA
ENDBRANCH  11  19
ENDBRANCH   9  11
ENDBRANCH   6   7
ENDBRANCH   5   6
ENDBRANCH   1   5
TORSDOF 7
REMARK  8 active torsions:
REMARK  status: ('A' for Active; 'I' for Inactive)
REMARK    1  A    between atoms: C70_1  and  C1_2 
REMARK    2  A    between atoms: C70_1  and  N12_19 
REMARK    3  A    between atoms: C1_2  and  C2_3 
REMARK    4  A    between atoms: C2_3  and  C3_4 
REMARK       I    between atoms: C3_4  and  N1_6 
REMARK    5  A    between atoms: N1_6  and  C4_7 
REMARK    6  A    between atoms: C4_7  and  C13_8 
REMARK    7  A    between atoms: C4_7  and  C5_10 
REMARK    8  A    between atoms: C13_8  and  C7_9 
ROOT
HETATM    1  C70 BES A 501      37.369  10.059 193.185  1.00  6.08     0.230 C 
ENDROOT
BRANCH   1   2
HETATM    2  C1  BES A 501      36.089  10.510 192.805  1.00  6.71     0.036 C 
BRANCH   2   3
HETATM    3  C2  BES A 501      35.743  11.934 193.112  1.00  9.09     0.098 C 
BRANCH   3   4
HETATM    4  C3  BES A 501      34.609  11.959 194.096  1.00  8.29     0.198 C 
HETATM    5  O3  BES A 501      33.484  11.986 193.650  1.00  7.85    -0.280 OA
HETATM    6  N1  BES A 501      34.910  11.945 195.535  1.00  8.97    -0.248 NA
HETATM    7  H7  BES A 501      35.533  12.797 195.707  1.00  8.27     0.131 HD
BRANCH   6   8
HETATM    8  C4  BES A 501      33.900  11.977 196.594  1.00 10.85     0.169 C 
BRANCH   8   9
HETATM    9  C13 BES A 501      33.877  10.630 197.322  1.00  8.22     0.089 C 
BRANCH   9  10
HETATM   10  C7  BES A 501      35.140   9.813 196.989  1.00 11.21     0.029 A 
HETATM   11  C21 BES A 501      35.177   8.478 196.222  1.00  0.00     0.143 A 
HETATM   12  N22 BES A 501      36.647   8.028 196.123  1.00  0.00    -0.254 N 
HETATM   13  C23 BES A 501      37.517   9.084 196.829  1.00  0.00     0.207 A 
HETATM   14  N24 BES A 501      36.585  10.188 197.364  1.00  0.00    -0.353 N 
HETATM   15  H13 BES A 501      36.889  11.062 197.902  1.00  8.23     0.166 HD
ENDBRANCH   9  10
ENDBRANCH   8   9
BRANCH   8  16
HETATM   16  C5  BES A 501      34.305  13.036 197.567  1.00 10.09     0.192 C 
HETATM   17  O1  BES A 501      33.942  14.228 197.369  1.00  5.58    -0.647 OA
HETATM   18  O4  BES A 501      34.967  12.668 198.586  1.00  5.29    -0.647 OA
ENDBRANCH   8  16
ENDBRANCH   6   8
ENDBRANCH   3   4
ENDBRANCH   2   3
ENDBRANCH   1   2
BRANCH   1  19
HETATM   19  N12 BES A 501      38.110  11.178 193.900  1.00  8.22    -0.079 N 
HETATM   20  H14 BES A 501      39.085  10.838 194.181  1.00  8.22     0.274 HD
HETATM   21  H15 BES A 501      37.567  11.464 194.775  1.00  8.22     0.274 HD
HETATM   22  H6  BES A 501      38.202  12.020 193.246  1.00  8.22     0.274 HD
ENDBRANCH   1  19
TORSDOF 8
ENDMDL
MODEL 2
REMARK VINA RESULT:    -1.738      6.512     10.562
REMARK INTER + INTRA:          -5.319
REMARK INTER:                  -3.794
REMARK INTRA:                  -1.526
REMARK UNBOUND:                -2.160
REMARK  7 active torsions:
REMARK  status: ('A' for Active; 'I' for Inactive)
REMARK    1  A    between atoms: N2_1  and  C1_2 
REMARK    2  A    between atoms: C1_2  and  C2_3 
REMARK    3  A    between atoms: C2_3  and  C3_4 
REMARK       I    between atoms: C3_4  and  N1_6 
REMARK    4  A    between atoms: N1_6  and  C4_7 
REMARK    5  A    between atoms: C4_7  and  C13_8 
REMARK    6  A    between atoms: C4_7  and  C5_10 
REMARK    7  A    between atoms: C13_8  and  C7_9 
ROOT
HETATM    1  N2  BES   501      37.666  19.517 197.387  1.00  0.00    -0.079 N 
HETATM    2  H12 BES   501      37.368  19.881 198.348  1.00  0.00     0.274 HD
HETATM    3  H13 BES   501      37.088  20.004 196.629  1.00  0.00     0.274 HD
HETATM    4  H2  BES   501      38.704  19.725 197.233  1.00  0.00     0.274 HD
ENDROOT
BRANCH   1   5
HETATM    5  C1  BES   501      37.445  18.099 197.320  1.00  0.00     0.238 C 
BRANCH   5   6
HETATM    6  C2  BES   501      36.906  17.578 198.635  1.00  0.00     0.123 C 
BRANCH   6   7
HETATM    7  C3  BES   501      38.008  16.885 199.415  1.00  0.00     0.199 C 
HETATM    8  O3  BES   501      37.778  15.890 200.091  1.00  0.00    -0.280 OA
HETATM    9  N1  BES   501      39.357  17.462 199.375  1.00  0.00    -0.248 NA
HETATM   10  H7  BES   501      39.276  18.462 199.745  1.00  0.00     0.131 HD
BRANCH   9  11
HETATM   11  C4  BES   501      40.461  16.822 200.120  1.00  0.00     0.169 C 
BRANCH  11  12
HETATM   12  C13 BES   501      41.753  16.848 199.301  1.00  0.00     0.091 C 
BRANCH  12  13
HETATM   13  C7  BES   501      42.737  15.789 199.831  1.00  0.00     0.053 A 
HETATM   14  C14 BES   501      42.376  14.359 200.274  1.00  0.00     0.116 A 
HETATM   15  N15 BES   501      43.669  13.660 200.729  1.00  0.00    -0.359 N 
HETATM   16  C16 BES   501      44.832  14.658 200.567  1.00  0.00     0.207 A 
HETATM   17  H13 BES   501      43.748  12.656 201.093  1.00  0.00     0.166 HD
HETATM   18  N17 BES   501      44.255  15.973 200.012  1.00  0.00    -0.247 N 
ENDBRANCH  12  13
ENDBRANCH  11  12
BRANCH  11  19
HETATM   19  C5  BES   501      40.616  17.425 201.507  1.00  0.00     0.192 C 
HETATM   20  O1  BES   501      41.267  18.491 201.665  1.00  0.00    -0.647 OA
HETATM   21  O4  BES   501      40.083  16.872 202.507  1.00  0.00    -0.647 OA
ENDBRANCH  11  19
ENDBRANCH   9  11
ENDBRANCH   6   7
ENDBRANCH   5   6
ENDBRANCH   1   5
TORSDOF 7
REMARK  8 active torsions:
REMARK  status: ('A' for Active; 'I' for Inactive)
REMARK    1  A    between atoms: C70_1  and  C1_2 
REMARK    2  A    between atoms: C70_1  and  N12_19 
REMARK    3  A    between atoms: C1_2  and  C2_3 
REMARK    4  A    between atoms: C2_3  and  C3_4 
REMARK       I    between atoms: C3_4  and  N1_6 
REMARK    5  A    between atoms: N1_6  and  C4_7 
REMARK    6  A    between atoms: C4_7  and  C13_8 
REMARK    7  A    between atoms: C4_7  and  C5_10 
REMARK    8  A    between atoms: C13_8  and  C7_9 
ROOT
HETATM    1  C70 BES A 501      35.862  17.907 202.354  1.00  6.08     0.230 C 
ENDROOT
BRANCH   1   2
HETATM    2  C1  BES A 501      36.233  19.199 201.930  1.00  6.71     0.036 C 
BRANCH   2   3
HETATM    3  C2  BES A 501      37.676  19.577 202.058  1.00  9.09     0.098 C 
BRANCH   3   4
HETATM    4  C3  BES A 501      38.077  20.385 200.857  1.00  8.29     0.198 C 
HETATM    5  O3  BES A 501      37.190  20.816 200.154  1.00  7.85    -0.280 OA
HETATM    6  N1  BES A 501      39.504  20.619 200.595  1.00  8.97    -0.248 NA
HETATM    7  H7  BES A 501      39.945  19.647 200.517  1.00  8.27     0.131 HD
BRANCH   6   8
HETATM    8  C4  BES A 501      40.025  21.378 199.458  1.00 10.85     0.169 C 
BRANCH   8   9
HETATM    9  C13 BES A 501      40.792  22.602 199.966  1.00  8.22     0.089 C 
BRANCH   9  10
HETATM   10  C7  BES A 501      41.068  22.479 201.477  1.00 11.21     0.029 A 
HETATM   11  C21 BES A 501      40.531  23.417 202.574  1.00  0.00     0.143 A 
HETATM   12  N22 BES A 501      41.060  22.914 203.930  1.00  0.00    -0.254 N 
HETATM   13  C23 BES A 501      41.923  21.665 203.671  1.00  0.00     0.207 A 
HETATM   14  N24 BES A 501      41.928  21.396 202.154  1.00  0.00    -0.353 N 
HETATM   15  H13 BES A 501      42.439  20.598 201.658  1.00  8.23     0.166 HD
ENDBRANCH   9  10
ENDBRANCH   8   9
BRANCH   8  16
HETATM   16  C5  BES A 501      40.979  20.490 198.726  1.00 10.09     0.192 C 
HETATM   17  O1  BES A 501      40.564  19.813 197.745  1.00  5.58    -0.647 OA
HETATM   18  O4  BES A 501      42.190  20.498 199.106  1.00  5.29    -0.647 OA
ENDBRANCH   8  16
ENDBRANCH   6   8
ENDBRANCH   3   4
ENDBRANCH   2   3
ENDBRANCH   1   2
BRANCH   1  19
HETATM   19  N12 BES A 501      37.092  17.164 202.851  1.00  8.22    -0.079 N 
HETATM   20  H14 BES A 501      37.587  17.751 203.595  1.00  8.22     0.274 HD
HETATM   21  H15 BES A 501      37.759  16.990 202.033  1.00  8.22     0.274 HD
HETATM   22  H6  BES A 501      36.796  16.227 203.275  1.00  8.22     0.274 HD
ENDBRANCH   1  19
TORSDOF 8
ENDMDL
MODEL 3
REMARK VINA RESULT:    -1.734      7.066     10.331
REMARK INTER + INTRA:          -5.314
REMARK INTER:                  -2.978
REMARK INTRA:                  -2.335
REMARK UNBOUND:                -2.160
REMARK  7 active torsions:
REMARK  status: ('A' for Active; 'I' for Inactive)
REMARK    1  A    between atoms: N2_1  and  C1_2 
REMARK    2  A    between atoms: C1_2  and  C2_3 
REMARK    3  A    between atoms: C2_3  and  C3_4 
REMARK       I    between atoms: C3_4  and  N1_6 
REMARK    4  A    between atoms: N1_6  and  C4_7 
REMARK    5  A    between atoms: C4_7  and  C13_8 
REMARK    6  A    between atoms: C4_7  and  C5_10 
REMARK    7  A    between atoms: C13_8  and  C7_9 
ROOT
HETATM    1  N2  BES   501      39.423  20.318 205.375  1.00  0.00    -0.079 N 
HETATM    2  H12 BES   501      40.189  19.753 204.888  1.00  0.00     0.274 HD
HETATM    3  H13 BES   501      38.479  19.833 205.235  1.00  0.00     0.274 HD
HETATM    4  H2  BES   501      39.638  20.384 206.421  1.00  0.00     0.274 HD
ENDROOT
BRANCH   1   5
HETATM    5  C1  BES   501      39.369  21.640 204.812  1.00  0.00     0.238 C 
BRANCH   5   6
HETATM    6  C2  BES   501      38.101  21.827 204.007  1.00  0.00     0.123 C 
BRANCH   6   7
HETATM    7  C3  BES   501      37.131  20.694 204.287  1.00  0.00     0.199 C 
HETATM    8  O3  BES   501      36.337  20.754 205.218  1.00  0.00    -0.280 OA
HETATM    9  N1  BES   501      37.192  19.499 203.438  1.00  0.00    -0.248 NA
HETATM   10  H7  BES   501      38.183  19.108 203.527  1.00  0.00     0.131 HD
BRANCH   9  11
HETATM   11  C4  BES   501      36.267  18.372 203.674  1.00  0.00     0.169 C 
BRANCH  11  12
HETATM   12  C13 BES   501      35.523  18.003 202.388  1.00  0.00     0.091 C 
BRANCH  12  13
HETATM   13  C7  BES   501      34.208  18.797 202.292  1.00  0.00     0.053 A 
HETATM   14  C14 BES   501      33.274  18.857 201.068  1.00  0.00     0.116 A 
HETATM   15  N15 BES   501      32.083  19.767 201.422  1.00  0.00    -0.359 N 
HETATM   16  C16 BES   501      32.280  20.268 202.865  1.00  0.00     0.207 A 
HETATM   17  H13 BES   501      31.262  20.007 200.779  1.00  0.00     0.166 HD
HETATM   18  N17 BES   501      33.592  19.669 203.402  1.00  0.00    -0.247 N 
ENDBRANCH  12  13
ENDBRANCH  11  12
BRANCH  11  19
HETATM   19  C5  BES   501      36.983  17.193 204.313  1.00  0.00     0.192 C 
HETATM   20  O1  BES   501      37.909  17.389 205.144  1.00  0.00    -0.647 OA
HETATM   21  O4  BES   501      36.646  16.012 204.030  1.00  0.00    -0.647 OA
ENDBRANCH  11  19
ENDBRANCH   9  11
ENDBRANCH   6   7
ENDBRANCH   5   6
ENDBRANCH   1   5
TORSDOF 7
REMARK  8 active torsions:
REMARK  status: ('A' for Active; 'I' for Inactive)
REMARK    1  A    between atoms: C70_1  and  C1_2 
REMARK    2  A    between atoms: C70_1  and  N12_19 
REMARK    3  A    between atoms: C1_2  and  C2_3 
REMARK    4  A    between atoms: C2_3  and  C3_4 
REMARK       I    between atoms: C3_4  and  N1_6 
REMARK    5  A    between atoms: N1_6  and  C4_7 
REMARK    6  A    between atoms: C4_7  and  C13_8 
REMARK    7  A    between atoms: C4_7  and  C5_10 
REMARK    8  A    between atoms: C13_8  and  C7_9 
ROOT
HETATM    1  C70 BES A 501      40.726  15.295 204.928  1.00  6.08     0.230 C 
ENDROOT
BRANCH   1   2
HETATM    2  C1  BES A 501      41.538  15.752 203.870  1.00  6.71     0.036 C 
BRANCH   2   3
HETATM    3  C2  BES A 501      41.604  17.230 203.642  1.00  9.09     0.098 C 
BRANCH   3   4
HETATM    4  C3  BES A 501      40.438  17.644 202.791  1.00  8.29     0.198 C 
HETATM    5  O3  BES A 501      40.047  18.785 202.899  1.00  7.85    -0.280 OA
HETATM    6  N1  BES A 501      39.837  16.665 201.874  1.00  8.97    -0.248 NA
HETATM    7  H7  BES A 501      39.538  15.842 202.488  1.00  8.27     0.131 HD
BRANCH   6   8
HETATM    8  C4  BES A 501      38.695  16.939 201.001  1.00 10.85     0.169 C 
BRANCH   8   9
HETATM    9  C13 BES A 501      39.194  17.488 199.660  1.00  8.22     0.089 C 
BRANCH   9  10
HETATM   10  C7  BES A 501      38.898  18.996 199.551  1.00 11.21     0.029 A 
HETATM   11  C21 BES A 501      39.153  19.881 198.316  1.00  0.00     0.143 A 
HETATM   12  N22 BES A 501      38.707  21.315 198.659  1.00  0.00    -0.254 N 
HETATM   13  C23 BES A 501      38.178  21.317 200.105  1.00  0.00     0.207 A 
HETATM   14  N24 BES A 501      38.296  19.883 200.657  1.00  0.00    -0.353 N 
HETATM   15  H13 BES A 501      38.010  19.560 201.636  1.00  8.23     0.166 HD
ENDBRANCH   9  10
ENDBRANCH   8   9
BRANCH   8  16
HETATM   16  C5  BES A 501      38.000  15.641 200.753  1.00 10.09     0.192 C 
HETATM   17  O1  BES A 501      38.300  14.634 201.453  1.00  5.58    -0.647 OA
HETATM   18  O4  BES A 501      37.093  15.626 199.864  1.00  5.29    -0.647 OA
ENDBRANCH   8  16
ENDBRANCH   6   8
ENDBRANCH   3   4
ENDBRANCH   2   3
ENDBRANCH   1   2
BRANCH   1  19
HETATM   19  N12 BES A 501      39.458  14.675 204.362  1.00  8.22    -0.079 N 
HETATM   20  H14 BES A 501      39.203  15.161 203.444  1.00  8.22     0.274 HD
HETATM   21  H15 BES A 501      38.659  14.795 205.063  1.00  8.22     0.274 HD
HETATM   22  H6  BES A 501      39.620  13.633 204.181  1.00  8.22     0.274 HD
ENDBRANCH   1  19
TORSDOF 8
ENDMDL
MODEL 4
REMARK VINA RESULT:    -1.715      9.101     12.091
REMARK INTER + INTRA:          -5.279
REMARK INTER:                  -3.806
REMARK INTRA:                  -1.473
REMARK UNBOUND:                -2.160
REMARK  7 active torsions:
REMARK  status: ('A' for Active; 'I' for Inactive)
REMARK    1  A    between atoms: N2_1  and  C1_2 
REMARK    2  A    between atoms: C1_2  and  C2_3 
REMARK    3  A    between atoms: C2_3  and  C3_4 
REMARK       I    between atoms: C3_4  and  N1_6 
REMARK    4  A    between atoms: N1_6  and  C4_7 
REMARK    5  A    between atoms: C4_7  and  C13_8 
REMARK    6  A    between atoms: C4_7  and  C5_10 
REMARK    7  A    between atoms: C13_8  and  C7_9 
ROOT
HETATM    1  N2  BES   501      42.698  18.806 203.758  1.00  0.00    -0.079 N 
HETATM    2  H12 BES   501      43.721  18.774 203.448  1.00  0.00     0.274 HD
HETATM    3  H13 BES   501      42.090  19.142 202.943  1.00  0.00     0.274 HD
HETATM    4  H2  BES   501      42.384  17.828 204.056  1.00  0.00     0.274 HD
ENDROOT
BRANCH   1   5
HETATM    5  C1  BES   501      42.558  19.713 204.864  1.00  0.00     0.238 C 
BRANCH   5   6
HETATM    6  C2  BES   501      41.405  20.665 204.634  1.00  0.00     0.123 C 
BRANCH   6   7
HETATM    7  C3  BES   501      41.906  21.953 204.005  1.00  0.00     0.199 C 
HETATM    8  O3  BES   501      41.817  23.023 204.594  1.00  0.00    -0.280 OA
HETATM    9  N1  BES   501      42.466  21.894 202.650  1.00  0.00    -0.248 NA
HETATM   10  H7  BES   501      41.700  21.500 202.016  1.00  0.00     0.131 HD
BRANCH   9  11
HETATM   11  C4  BES   501      42.965  23.123 201.999  1.00  0.00     0.169 C 
BRANCH  11  12
HETATM   12  C13 BES   501      44.479  23.253 202.178  1.00  0.00     0.091 C 
BRANCH  12  13
HETATM   13  C7  BES   501      45.152  21.878 202.009  1.00  0.00     0.053 A 
HETATM   14  C14 BES   501      45.574  21.235 200.675  1.00  0.00     0.116 A 
HETATM   15  N15 BES   501      46.203  19.864 200.985  1.00  0.00    -0.359 N 
HETATM   16  C16 BES   501      46.172  19.661 202.512  1.00  0.00     0.207 A 
HETATM   17  H13 BES   501      46.595  19.174 200.266  1.00  0.00     0.166 HD
HETATM   18  N17 BES   501      45.522  20.905 203.144  1.00  0.00    -0.247 N 
ENDBRANCH  12  13
ENDBRANCH  11  12
BRANCH  11  19
HETATM   19  C5  BES   501      42.523  23.198 200.546  1.00  0.00     0.192 C 
HETATM   20  O1  BES   501      41.414  22.715 200.196  1.00  0.00    -0.647 OA
HETATM   21  O4  BES   501      43.254  23.757 199.684  1.00  0.00    -0.647 OA
ENDBRANCH  11  19
ENDBRANCH   9  11
ENDBRANCH   6   7
ENDBRANCH   5   6
ENDBRANCH   1   5
TORSDOF 7
REMARK  8 active torsions:
REMARK  status: ('A' for Active; 'I' for Inactive)
REMARK    1  A    between atoms: C70_1  and  C1_2 
REMARK    2  A    between atoms: C70_1  and  N12_19 
REMARK    3  A    between atoms: C1_2  and  C2_3 
REMARK    4  A    between atoms: C2_3  and  C3_4 
REMARK       I    between atoms: C3_4  and  N1_6 
REMARK    5  A    between atoms: N1_6  and  C4_7 
REMARK    6  A    between atoms: C4_7  and  C13_8 
REMARK    7  A    between atoms: C4_7  and  C5_10 
REMARK    8  A    between atoms: C13_8  and  C7_9 
ROOT
HETATM    1  C70 BES A 501      42.185  20.814 196.969  1.00  6.08     0.230 C 
ENDROOT
BRANCH   1   2
HETATM    2  C1  BES A 501      43.067  20.531 198.031  1.00  6.71     0.036 C 
BRANCH   2   3
HETATM    3  C2  BES A 501      42.966  19.180 198.667  1.00  9.09     0.098 C 
BRANCH   3   4
HETATM    4  C3  BES A 501      42.291  19.318 200.002  1.00  8.29     0.198 C 
HETATM    5  O3  BES A 501      42.989  19.249 200.988  1.00  7.85    -0.280 OA
HETATM    6  N1  BES A 501      40.838  19.533 200.051  1.00  8.97    -0.248 NA
HETATM    7  H7  BES A 501      40.407  18.701 199.533  1.00  8.27     0.131 HD
BRANCH   6   8
HETATM    8  C4  BES A 501      40.062  19.672 201.283  1.00 10.85     0.169 C 
BRANCH   8   9
HETATM    9  C13 BES A 501      38.803  20.500 201.006  1.00  8.22     0.089 C 
BRANCH   9  10
HETATM   10  C7  BES A 501      38.615  21.577 202.091  1.00 11.21     0.029 A 
HETATM   11  C21 BES A 501      37.968  21.366 203.473  1.00  0.00     0.143 A 
HETATM   12  N22 BES A 501      37.994  22.712 204.220  1.00  0.00    -0.254 N 
HETATM   13  C23 BES A 501      38.657  23.755 203.301  1.00  0.00     0.207 A 
HETATM   14  N24 BES A 501      39.040  23.053 201.984  1.00  0.00    -0.353 N 
HETATM   15  H13 BES A 501      39.518  23.510 201.144  1.00  8.23     0.166 HD
ENDBRANCH   9  10
ENDBRANCH   8   9
BRANCH   8  16
HETATM   16  C5  BES A 501      39.645  18.302 201.708  1.00 10.09     0.192 C 
HETATM   17  O1  BES A 501      39.104  17.531 200.867  1.00  5.58    -0.647 OA
HETATM   18  O4  BES A 501      39.902  17.960 202.903  1.00  5.29    -0.647 OA
ENDBRANCH   8  16
ENDBRANCH   6   8
ENDBRANCH   3   4
ENDBRANCH   2   3
ENDBRANCH   1   2
BRANCH   1  19
HETATM   19  N12 BES A 501      40.941  21.502 197.511  1.00  8.22    -0.079 N 
HETATM   20  H14 BES A 501      41.221  22.414 197.995  1.00  8.22     0.274 HD
HETATM   21  H15 BES A 501      40.456  20.859 198.215  1.00  8.22     0.274 HD
HETATM   22  H6  BES A 501      40.272  21.717 196.705  1.00  8.22     0.274 HD
ENDBRANCH   1  19
TORSDOF 8
ENDMDL
MODEL 5
REMARK VINA RESULT:    -1.686      2.157      5.788
REMARK INTER + INTRA:          -5.227
REMARK INTER:                  -3.078
REMARK INTRA:                  -2.149
REMARK UNBOUND:                -2.160
REMARK  7 active torsions:
REMARK  status: ('A' for Active; 'I' for Inactive)
REMARK    1  A    between atoms: N2_1  and  C1_2 
REMARK    2  A    between atoms: C1_2  and  C2_3 
REMARK    3  A    between atoms: C2_3  and  C3_4 
REMARK       I    between atoms: C3_4  and  N1_6 
REMARK    4  A    between atoms: N1_6  and  C4_7 
REMARK    5  A    between atoms: C4_7  and  C13_8 
REMARK    6  A    between atoms: C4_7  and  C5_10 
REMARK    7  A    between atoms: C13_8  and  C7_9 
ROOT
HETATM    1  N2  BES   501      35.962  10.308 199.648  1.00  0.00    -0.079 N 
HETATM    2  H12 BES   501      35.481  11.178 199.252  1.00  0.00     0.274 HD
HETATM    3  H13 BES   501      35.400   9.939 200.480  1.00  0.00     0.274 HD
HETATM    4  H2  BES   501      36.016   9.554 198.891  1.00  0.00     0.274 HD
ENDROOT
BRANCH   1   5
HETATM    5  C1  BES   501      37.290  10.649 200.081  1.00  0.00     0.238 C 
BRANCH   5   6
HETATM    6  C2  BES   501      38.126  11.131 198.915  1.00  0.00     0.123 C 
BRANCH   6   7
HETATM    7  C3  BES   501      37.628  10.510 197.622  1.00  0.00     0.199 C 
HETATM    8  O3  BES   501      37.941   9.369 197.305  1.00  0.00    -0.280 OA
HETATM    9  N1  BES   501      36.793  11.326 196.734  1.00  0.00    -0.248 NA
HETATM   10  H7  BES   501      37.367  12.192 196.480  1.00  0.00     0.131 HD
BRANCH   9  11
HETATM   11  C4  BES   501      36.287  10.764 195.465  1.00  0.00     0.169 C 
BRANCH  11  12
HETATM   12  C13 BES   501      34.760  10.847 195.408  1.00  0.00     0.091 C 
BRANCH  12  13
HETATM   13  C7  BES   501      34.139   9.864 196.416  1.00  0.00     0.053 A 
HETATM   14  C14 BES   501      32.900  10.129 197.294  1.00  0.00     0.116 A 
HETATM   15  N15 BES   501      32.642   8.873 198.146  1.00  0.00    -0.359 N 
HETATM   16  C16 BES   501      33.720   7.830 197.794  1.00  0.00     0.207 A 
HETATM   17  H13 BES   501      31.852   8.745 198.856  1.00  0.00     0.166 HD
HETATM   18  N17 BES   501      34.644   8.443 196.726  1.00  0.00    -0.247 N 
ENDBRANCH  12  13
ENDBRANCH  11  12
BRANCH  11  19
HETATM   19  C5  BES   501      36.969  11.402 194.266  1.00  0.00     0.192 C 
HETATM   20  O1  BES   501      38.196  11.205 194.056  1.00  0.00    -0.647 OA
HETATM   21  O4  BES   501      36.312  12.120 193.465  1.00  0.00    -0.647 OA
ENDBRANCH  11  19
ENDBRANCH   9  11
ENDBRANCH   6   7
ENDBRANCH   5   6
ENDBRANCH   1   5
TORSDOF 7
REMARK  8 active torsions:
REMARK  status: ('A' for Active; 'I' for Inactive)
REMARK    1  A    between atoms: C70_1  and  C1_2 
REMARK    2  A    between atoms: C70_1  and  N12_19 
REMARK    3  A    between atoms: C1_2  and  C2_3 
REMARK    4  A    between atoms: C2_3  and  C3_4 
REMARK       I    between atoms: C3_4  and  N1_6 
REMARK    5  A    between atoms: N1_6  and  C4_7 
REMARK    6  A    between atoms: C4_7  and  C13_8 
REMARK    7  A    between atoms: C4_7  and  C5_10 
REMARK    8  A    between atoms: C13_8  and  C7_9 
ROOT
HETATM    1  C70 BES A 501      39.435  14.512 193.986  1.00  6.08     0.230 C 
ENDROOT
BRANCH   1   2
HETATM    2  C1  BES A 501      38.648  14.564 195.154  1.00  6.71     0.036 C 
BRANCH   2   3
HETATM    3  C2  BES A 501      39.258  14.041 196.417  1.00  9.09     0.098 C 
BRANCH   3   4
HETATM    4  C3  BES A 501      38.479  14.566 197.589  1.00  8.29     0.198 C 
HETATM    5  O3  BES A 501      39.099  15.127 198.464  1.00  7.85    -0.280 OA
HETATM    6  N1  BES A 501      37.021  14.385 197.619  1.00  8.97    -0.248 NA
HETATM    7  H7  BES A 501      36.861  13.329 197.545  1.00  8.27     0.131 HD
BRANCH   6   8
HETATM    8  C4  BES A 501      36.150  14.839 198.703  1.00 10.85     0.169 C 
BRANCH   8   9
HETATM    9  C13 BES A 501      35.178  15.898 198.173  1.00  8.22     0.089 C 
BRANCH   9  10
HETATM   10  C7  BES A 501      35.217  15.945 196.634  1.00 11.21     0.029 A 
HETATM   11  C21 BES A 501      35.616  17.160 195.775  1.00  0.00     0.143 A 
HETATM   12  N22 BES A 501      35.510  16.751 194.295  1.00  0.00    -0.254 N 
HETATM   13  C23 BES A 501      35.045  15.283 194.237  1.00  0.00     0.207 A 
HETATM   14  N24 BES A 501      34.864  14.785 195.684  1.00  0.00    -0.353 N 
HETATM   15  H13 BES A 501      34.549  13.806 195.977  1.00  8.23     0.166 HD
ENDBRANCH   9  10
ENDBRANCH   8   9
BRANCH   8  16
HETATM   16  C5  BES A 501      35.360  13.660 199.168  1.00 10.09     0.192 C 
HETATM   17  O1  BES A 501      35.214  13.462 200.406  1.00  5.58    -0.647 OA
HETATM   18  O4  BES A 501      34.828  12.928 198.277  1.00  5.29    -0.647 OA
ENDBRANCH   8  16
ENDBRANCH   6   8
ENDBRANCH   3   4
ENDBRANCH   2   3
ENDBRANCH   1   2
BRANCH   1  19
HETATM   19  N12 BES A 501      38.557  14.150 192.798  1.00  8.22    -0.079 N 
HETATM   20  H14 BES A 501      37.803  13.459 193.110  1.00  8.22     0.274 HD
HETATM   21  H15 BES A 501      39.156  13.703 192.034  1.00  8.22     0.274 HD
HETATM   22  H6  BES A 501      38.093  15.034 192.415  1.00  8.22     0.274 HD
ENDBRANCH   1  19
TORSDOF 8
ENDMDL
MODEL 6
REMARK VINA RESULT:    -1.677      4.158      7.077
REMARK INTER + INTRA:          -5.209
REMARK INTER:                  -3.077
REMARK INTRA:                  -2.133
REMARK UNBOUND:                -2.160
REMARK  7 active torsions:
REMARK  status: ('A' for Active; 'I' for Inactive)
REMARK    1  A    between atoms: N2_1  and  C1_2 
REMARK    2  A    between atoms: C1_2  and  C2_3 
REMARK    3  A    between atoms: C2_3  and  C3_4 
REMARK       I    between atoms: C3_4  and  N1_6 
REMARK    4  A    between atoms: N1_6  and  C4_7 
REMARK    5  A    between atoms: C4_7  and  C13_8 
REMARK    6  A    between atoms: C4_7  and  C5_10 
REMARK    7  A    between atoms: C13_8  and  C7_9 
ROOT
HETATM    1  N2  BES   501      41.128  17.460 192.915  1.00  0.00    -0.079 N 
HETATM    2  H12 BES   501      40.550  18.186 192.383  1.00  0.00     0.274 HD
HETATM    3  H13 BES   501      41.725  17.952 193.654  1.00  0.00     0.274 HD
HETATM    4  H2  BES   501      40.472  16.763 193.393  1.00  0.00     0.274 HD
ENDROOT
BRANCH   1   5
HETATM    5  C1  BES   501      41.985  16.761 191.996  1.00  0.00     0.238 C 
BRANCH   5   6
HETATM    6  C2  BES   501      41.233  15.640 191.312  1.00  0.00     0.123 C 
BRANCH   6   7
HETATM    7  C3  BES   501      39.780  15.639 191.750  1.00  0.00     0.199 C 
HETATM    8  O3  BES   501      38.924  16.236 191.109  1.00  0.00    -0.280 OA
HETATM    9  N1  BES   501      39.427  14.937 192.989  1.00  0.00    -0.248 NA
HETATM   10  H7  BES   501      40.003  15.385 193.772  1.00  0.00     0.131 HD
BRANCH   9  11
HETATM   11  C4  BES   501      38.025  14.911 193.454  1.00  0.00     0.169 C 
BRANCH  11  12
HETATM   12  C13 BES   501      37.657  13.523 193.985  1.00  0.00     0.091 C 
BRANCH  12  13
HETATM   13  C7  BES   501      36.851  12.749 192.926  1.00  0.00     0.053 A 
HETATM   14  C14 BES   501      36.680  11.219 192.858  1.00  0.00     0.116 A 
HETATM   15  N15 BES   501      35.798  10.892 191.639  1.00  0.00    -0.359 N 
HETATM   16  C16 BES   501      35.421  12.220 190.955  1.00  0.00     0.207 A 
HETATM   17  H13 BES   501      35.497   9.915 191.324  1.00  0.00     0.166 HD
HETATM   18  N17 BES   501      36.072  13.366 191.750  1.00  0.00    -0.247 N 
ENDBRANCH  12  13
ENDBRANCH  11  12
BRANCH  11  19
HETATM   19  C5  BES   501      37.751  16.027 194.449  1.00  0.00     0.192 C 
HETATM   20  O1  BES   501      38.628  16.901 194.678  1.00  0.00    -0.647 OA
HETATM   21  O4  BES   501      36.639  16.096 195.040  1.00  0.00    -0.647 OA
ENDBRANCH  11  19
ENDBRANCH   9  11
ENDBRANCH   6   7
ENDBRANCH   5   6
ENDBRANCH   1   5
TORSDOF 7
REMARK  8 active torsions:
REMARK  status: ('A' for Active; 'I' for Inactive)
REMARK    1  A    between atoms: C70_1  and  C1_2 
REMARK    2  A    between atoms: C70_1  and  N12_19 
REMARK    3  A    between atoms: C1_2  and  C2_3 
REMARK    4  A    between atoms: C2_3  and  C3_4 
REMARK       I    between atoms: C3_4  and  N1_6 
REMARK    5  A    between atoms: N1_6  and  C4_7 
REMARK    6  A    between atoms: C4_7  and  C13_8 
REMARK    7  A    between atoms: C4_7  and  C5_10 
REMARK    8  A    between atoms: C13_8  and  C7_9 
ROOT
HETATM    1  C70 BES A 501      40.076  14.726 187.817  1.00  6.08     0.230 C 
ENDROOT
BRANCH   1   2
HETATM    2  C1  BES A 501      40.054  13.494 188.501  1.00  6.71     0.036 C 
BRANCH   2   3
HETATM    3  C2  BES A 501      38.806  13.145 189.250  1.00  9.09     0.098 C 
BRANCH   3   4
HETATM    4  C3  BES A 501      39.074  11.946 190.113  1.00  8.29     0.198 C 
HETATM    5  O3  BES A 501      38.478  10.925 189.849  1.00  7.85    -0.280 OA
HETATM    6  N1  BES A 501      40.035  12.059 191.219  1.00  8.97    -0.248 NA
HETATM    7  H7  BES A 501      39.669  12.852 191.838  1.00  8.27     0.131 HD
BRANCH   6   8
HETATM    8  C4  BES A 501      40.376  10.972 192.137  1.00 10.85     0.169 C 
BRANCH   8   9
HETATM    9  C13 BES A 501      41.641  10.262 191.645  1.00  8.22     0.089 C 
BRANCH   9  10
HETATM   10  C7  BES A 501      42.379  11.131 190.609  1.00 11.21     0.029 A 
HETATM   11  C21 BES A 501      42.619  10.768 189.131  1.00  0.00     0.143 A 
HETATM   12  N22 BES A 501      43.394  11.927 188.477  1.00  0.00    -0.254 N 
HETATM   13  C23 BES A 501      43.635  13.005 189.551  1.00  0.00     0.207 A 
HETATM   14  N24 BES A 501      43.007  12.512 190.869  1.00  0.00    -0.353 N 
HETATM   15  H13 BES A 501      43.007  13.038 191.801  1.00  8.23     0.166 HD
ENDBRANCH   9  10
ENDBRANCH   8   9
BRANCH   8  16
HETATM   16  C5  BES A 501      40.661  11.583 193.470  1.00 10.09     0.192 C 
HETATM   17  O1  BES A 501      40.323  10.966 194.518  1.00  5.58    -0.647 OA
HETATM   18  O4  BES A 501      41.282  12.690 193.481  1.00  5.29    -0.647 OA
ENDBRANCH   8  16
ENDBRANCH   6   8
ENDBRANCH   3   4
ENDBRANCH   2   3
ENDBRANCH   1   2
BRANCH   1  19
HETATM   19  N12 BES A 501      38.847  15.538 188.196  1.00  8.22    -0.079 N 
HETATM   20  H14 BES A 501      39.144  16.529 188.467  1.00  8.22     0.274 HD
HETATM   21  H15 BES A 501      38.354  15.075 189.024  1.00  8.22     0.274 HD
HETATM   22  H6  BES A 501      38.178  15.583 187.362  1.00  8.22     0.274 HD
ENDBRANCH   1  19
TORSDOF 8
ENDMDL
MODEL 7
REMARK VINA RESULT:    -1.662      6.562      9.781
REMARK INTER + INTRA:          -5.182
REMARK INTER:                  -3.441
REMARK INTRA:                  -1.741
REMARK UNBOUND:                -2.160
REMARK  7 active torsions:
REMARK  status: ('A' for Active; 'I' for Inactive)
REMARK    1  A    between atoms: N2_1  and  C1_2 
REMARK    2  A    between atoms: C1_2  and  C2_3 
REMARK    3  A    between atoms: C2_3  and  C3_4 
REMARK       I    between atoms: C3_4  and  N1_6 
REMARK    4  A    between atoms: N1_6  and  C4_7 
REMARK    5  A    between atoms: C4_7  and  C13_8 
REMARK    6  A    between atoms: C4_7  and  C5_10 
REMARK    7  A    between atoms: C13_8  and  C7_9 
ROOT
HETATM    1  N2  BES   501      41.968  15.937 188.585  1.00  0.00    -0.079 N 
HETATM    2  H12 BES   501      42.804  16.599 188.500  1.00  0.00     0.274 HD
HETATM    3  H13 BES   501      42.191  15.017 188.087  1.00  0.00     0.274 HD
HETATM    4  H2  BES   501      41.770  15.743 189.619  1.00  0.00     0.274 HD
ENDROOT
BRANCH   1   5
HETATM    5  C1  BES   501      40.813  16.542 187.981  1.00  0.00     0.238 C 
BRANCH   5   6
HETATM    6  C2  BES   501      40.461  17.838 188.677  1.00  0.00     0.123 C 
BRANCH   6   7
HETATM    7  C3  BES   501      41.458  18.124 189.786  1.00  0.00     0.199 C 
HETATM    8  O3  BES   501      41.236  17.784 190.942  1.00  0.00    -0.280 OA
HETATM    9  N1  BES   501      42.682  18.859 189.449  1.00  0.00    -0.248 NA
HETATM   10  H7  BES   501      42.376  19.798 189.037  1.00  0.00     0.131 HD
BRANCH   9  11
HETATM   11  C4  BES   501      43.680  19.160 190.496  1.00  0.00     0.169 C 
BRANCH  11  12
HETATM   12  C13 BES   501      45.101  19.026 189.944  1.00  0.00     0.091 C 
BRANCH  12  13
HETATM   13  C7  BES   501      45.959  18.171 190.894  1.00  0.00     0.053 A 
HETATM   14  C14 BES   501      46.329  16.689 190.694  1.00  0.00     0.116 A 
HETATM   15  N15 BES   501      47.196  16.249 191.887  1.00  0.00    -0.359 N 
HETATM   16  C16 BES   501      47.362  17.459 192.826  1.00  0.00     0.207 A 
HETATM   17  H13 BES   501      47.611  15.274 192.039  1.00  0.00     0.166 HD
HETATM   18  N17 BES   501      46.598  18.646 192.212  1.00  0.00    -0.247 N 
ENDBRANCH  12  13
ENDBRANCH  11  12
BRANCH  11  19
HETATM   19  C5  BES   501      43.412  20.509 191.145  1.00  0.00     0.192 C 
HETATM   20  O1  BES   501      43.974  21.547 190.704  1.00  0.00    -0.647 OA
HETATM   21  O4  BES   501      42.615  20.602 192.117  1.00  0.00    -0.647 OA
ENDBRANCH  11  19
ENDBRANCH   9  11
ENDBRANCH   6   7
ENDBRANCH   5   6
ENDBRANCH   1   5
TORSDOF 7
REMARK  8 active torsions:
REMARK  status: ('A' for Active; 'I' for Inactive)
REMARK    1  A    between atoms: C70_1  and  C1_2 
REMARK    2  A    between atoms: C70_1  and  N12_19 
REMARK    3  A    between atoms: C1_2  and  C2_3 
REMARK    4  A    between atoms: C2_3  and  C3_4 
REMARK       I    between atoms: C3_4  and  N1_6 
REMARK    5  A    between atoms: N1_6  and  C4_7 
REMARK    6  A    between atoms: C4_7  and  C13_8 
REMARK    7  A    between atoms: C4_7  and  C5_10 
REMARK    8  A    between atoms: C13_8  and  C7_9 
ROOT
HETATM    1  C70 BES A 501      38.386  15.432 190.826  1.00  6.08     0.230 C 
ENDROOT
BRANCH   1   2
HETATM    2  C1  BES A 501      39.515  14.591 190.890  1.00  6.71     0.036 C 
BRANCH   2   3
HETATM    3  C2  BES A 501      40.162  14.409 192.227  1.00  9.09     0.098 C 
BRANCH   3   4
HETATM    4  C3  BES A 501      41.608  14.804 192.127  1.00  8.29     0.198 C 
HETATM    5  O3  BES A 501      42.253  14.331 191.219  1.00  7.85    -0.280 OA
HETATM    6  N1  BES A 501      42.166  15.736 193.118  1.00  8.97    -0.248 NA
HETATM    7  H7  BES A 501      42.000  15.276 194.070  1.00  8.27     0.131 HD
BRANCH   6   8
HETATM    8  C4  BES A 501      43.556  16.191 193.138  1.00 10.85     0.169 C 
BRANCH   8   9
HETATM    9  C13 BES A 501      43.648  17.530 193.876  1.00  8.22     0.089 C 
BRANCH   9  10
HETATM   10  C7  BES A 501      42.275  17.924 194.453  1.00 11.21     0.029 A 
HETATM   11  C21 BES A 501      41.853  17.824 195.931  1.00  0.00     0.143 A 
HETATM   12  N22 BES A 501      40.401  18.326 196.045  1.00  0.00    -0.254 N 
HETATM   13  C23 BES A 501      39.926  18.734 194.638  1.00  0.00     0.207 A 
HETATM   14  N24 BES A 501      41.085  18.486 193.654  1.00  0.00    -0.353 N 
HETATM   15  H13 BES A 501      41.066  18.671 192.601  1.00  8.23     0.166 HD
ENDBRANCH   9  10
ENDBRANCH   8   9
BRANCH   8  16
HETATM   16  C5  BES A 501      44.348  15.176 193.896  1.00 10.09     0.192 C 
HETATM   17  O1  BES A 501      44.160  15.045 195.137  1.00  5.58    -0.647 OA
HETATM   18  O4  BES A 501      45.153  14.452 193.232  1.00  5.29    -0.647 OA
ENDBRANCH   8  16
ENDBRANCH   6   8
ENDBRANCH   3   4
ENDBRANCH   2   3
ENDBRANCH   1   2
BRANCH   1  19
HETATM   19  N12 BES A 501      38.597  16.633 191.734  1.00  8.22    -0.079 N 
HETATM   20  H14 BES A 501      38.209  16.417 192.707  1.00  8.22     0.274 HD
HETATM   21  H15 BES A 501      38.088  17.482 191.328  1.00  8.22     0.274 HD
HETATM   22  H6  BES A 501      39.643  16.846 191.807  1.00  8.22     0.274 HD
ENDBRANCH   1  19
TORSDOF 8
ENDMDL
MODEL 8
REMARK VINA RESULT:    -1.657      3.097      6.407
REMARK INTER + INTRA:          -5.174
REMARK INTER:                  -2.919
REMARK INTRA:                  -2.255
REMARK UNBOUND:                -2.160
REMARK  7 active torsions:
REMARK  status: ('A' for Active; 'I' for Inactive)
REMARK    1  A    between atoms: N2_1  and  C1_2 
REMARK    2  A    between atoms: C1_2  and  C2_3 
REMARK    3  A    between atoms: C2_3  and  C3_4 
REMARK       I    between atoms: C3_4  and  N1_6 
REMARK    4  A    between atoms: N1_6  and  C4_7 
REMARK    5  A    between atoms: C4_7  and  C13_8 
REMARK    6  A    between atoms: C4_7  and  C5_10 
REMARK    7  A    between atoms: C13_8  and  C7_9 
ROOT
HETATM    1  N2  BES   501      34.962  10.189 199.882  1.00  0.00    -0.079 N 
HETATM    2  H12 BES   501      35.816  10.597 199.384  1.00  0.00     0.274 HD
HETATM    3  H13 BES   501      34.257   9.844 199.154  1.00  0.00     0.274 HD
HETATM    4  H2  BES   501      35.266   9.369 200.499  1.00  0.00     0.274 HD
ENDROOT
BRANCH   1   5
HETATM    5  C1  BES   501      34.351  11.202 200.698  1.00  0.00     0.238 C 
BRANCH   5   6
HETATM    6  C2  BES   501      35.395  11.941 201.505  1.00  0.00     0.123 C 
BRANCH   6   7
HETATM    7  C3  BES   501      36.686  11.143 201.546  1.00  0.00     0.199 C 
HETATM    8  O3  BES   501      36.849  10.241 202.359  1.00  0.00    -0.280 OA
HETATM    9  N1  BES   501      37.759  11.506 200.613  1.00  0.00    -0.248 NA
HETATM   10  H7  BES   501      38.003  12.530 200.806  1.00  0.00     0.131 HD
BRANCH   9  11
HETATM   11  C4  BES   501      39.032  10.758 200.618  1.00  0.00     0.169 C 
BRANCH  11  12
HETATM   12  C13 BES   501      39.357  10.233 199.218  1.00  0.00     0.091 C 
BRANCH  12  13
HETATM   13  C7  BES   501      38.349   9.141 198.816  1.00  0.00     0.053 A 
HETATM   14  C14 BES   501      37.697   8.977 197.429  1.00  0.00     0.116 A 
HETATM   15  N15 BES   501      36.760   7.756 197.485  1.00  0.00    -0.359 N 
HETATM   16  C16 BES   501      36.834   7.164 198.905  1.00  0.00     0.207 A 
HETATM   17  H13 BES   501      36.164   7.383 196.678  1.00  0.00     0.166 HD
HETATM   18  N17 BES   501      37.815   8.020 199.727  1.00  0.00    -0.247 N 
ENDBRANCH  12  13
ENDBRANCH  11  12
BRANCH  11  19
HETATM   19  C5  BES   501      40.156  11.581 201.227  1.00  0.00     0.192 C 
HETATM   20  O1  BES   501      40.423  11.480 202.454  1.00  0.00    -0.647 OA
HETATM   21  O4  BES   501      40.839  12.359 200.508  1.00  0.00    -0.647 OA
ENDBRANCH  11  19
ENDBRANCH   9  11
ENDBRANCH   6   7
ENDBRANCH   5   6
ENDBRANCH   1   5
TORSDOF 7
REMARK  8 active torsions:
REMARK  status: ('A' for Active; 'I' for Inactive)
REMARK    1  A    between atoms: C70_1  and  C1_2 
REMARK    2  A    between atoms: C70_1  and  N12_19 
REMARK    3  A    between atoms: C1_2  and  C2_3 
REMARK    4  A    between atoms: C2_3  and  C3_4 
REMARK       I    between atoms: C3_4  and  N1_6 
REMARK    5  A    between atoms: N1_6  and  C4_7 
REMARK    6  A    between atoms: C4_7  and  C13_8 
REMARK    7  A    between atoms: C4_7  and  C5_10 
REMARK    8  A    between atoms: C13_8  and  C7_9 
ROOT
HETATM    1  C70 BES A 501      39.382  13.925 197.656  1.00  6.08     0.230 C 
ENDROOT
BRANCH   1   2
HETATM    2  C1  BES A 501      38.669  12.964 196.912  1.00  6.71     0.036 C 
BRANCH   2   3
HETATM    3  C2  BES A 501      37.360  13.386 196.321  1.00  9.09     0.098 C 
BRANCH   3   4
HETATM    4  C3  BES A 501      36.261  12.564 196.932  1.00  8.29     0.198 C 
HETATM    5  O3  BES A 501      36.410  12.196 198.075  1.00  7.85    -0.280 OA
HETATM    6  N1  BES A 501      35.070  12.252 196.129  1.00  8.97    -0.248 NA
HETATM    7  H7  BES A 501      35.433  11.747 195.259  1.00  8.27     0.131 HD
BRANCH   6   8
HETATM    8  C4  BES A 501      33.937  11.455 196.601  1.00 10.85     0.169 C 
BRANCH   8   9
HETATM    9  C13 BES A 501      32.673  11.853 195.832  1.00  8.22     0.089 C 
BRANCH   9  10
HETATM   10  C7  BES A 501      33.035  12.717 194.609  1.00 11.21     0.029 A 
HETATM   11  C21 BES A 501      32.592  14.173 194.367  1.00  0.00     0.143 A 
HETATM   12  N22 BES A 501      33.186  14.633 193.023  1.00  0.00    -0.254 N 
HETATM   13  C23 BES A 501      33.994  13.462 192.433  1.00  0.00     0.207 A 
HETATM   14  N24 BES A 501      33.901  12.277 193.414  1.00  0.00    -0.353 N 
HETATM   15  H13 BES A 501      34.357  11.318 193.287  1.00  8.23     0.166 HD
ENDBRANCH   9  10
ENDBRANCH   8   9
BRANCH   8  16
HETATM   16  C5  BES A 501      34.242  10.023 196.306  1.00 10.09     0.192 C 
HETATM   17  O1  BES A 501      34.035   9.151 197.194  1.00  5.58    -0.647 OA
HETATM   18  O4  BES A 501      34.660   9.746 195.139  1.00  5.29    -0.647 OA
ENDBRANCH   8  16
ENDBRANCH   6   8
ENDBRANCH   3   4
ENDBRANCH   2   3
ENDBRANCH   1   2
BRANCH   1  19
HETATM   19  N12 BES A 501      38.750  14.074 199.032  1.00  8.22    -0.079 N 
HETATM   20  H14 BES A 501      38.522  15.103 199.209  1.00  8.22     0.274 HD
HETATM   21  H15 BES A 501      39.432  13.726 199.778  1.00  8.22     0.274 HD
HETATM   22  H6  BES A 501      37.850  13.497 199.075  1.00  8.22     0.274 HD
ENDBRANCH   1  19
TORSDOF 8
ENDMDL
MODEL 9
REMARK VINA RESULT:    -1.630      5.272      8.258
REMARK INTER + INTRA:          -5.123
REMARK INTER:                  -3.387
REMARK INTRA:                  -1.736
REMARK UNBOUND:                -2.160
REMARK  7 active torsions:
REMARK  status: ('A' for Active; 'I' for Inactive)
REMARK    1  A    between atoms: N2_1  and  C1_2 
REMARK    2  A    between atoms: C1_2  and  C2_3 
REMARK    3  A    between atoms: C2_3  and  C3_4 
REMARK       I    between atoms: C3_4  and  N1_6 
REMARK    4  A    between atoms: N1_6  and  C4_7 
REMARK    5  A    between atoms: C4_7  and  C13_8 
REMARK    6  A    between atoms: C4_7  and  C5_10 
REMARK    7  A    between atoms: C13_8  and  C7_9 
ROOT
HETATM    1  N2  BES   501      31.254  18.308 197.506  1.00  0.00    -0.079 N 
HETATM    2  H12 BES   501      30.377  18.916 197.425  1.00  0.00     0.274 HD
HETATM    3  H13 BES   501      31.714  18.474 198.458  1.00  0.00     0.274 HD
HETATM    4  H2  BES   501      30.983  17.277 197.416  1.00  0.00     0.274 HD
ENDROOT
BRANCH   1   5
HETATM    5  C1  BES   501      32.178  18.655 196.461  1.00  0.00     0.238 C 
BRANCH   5   6
HETATM    6  C2  BES   501      33.259  19.575 196.985  1.00  0.00     0.123 C 
BRANCH   6   7
HETATM    7  C3  BES   501      34.075  18.868 198.052  1.00  0.00     0.199 C 
HETATM    8  O3  BES   501      34.352  17.679 197.956  1.00  0.00    -0.280 OA
HETATM    9  N1  BES   501      34.493  19.636 199.231  1.00  0.00    -0.248 NA
HETATM   10  H7  BES   501      33.600  20.002 199.693  1.00  0.00     0.131 HD
BRANCH   9  11
HETATM   11  C4  BES   501      35.288  18.990 200.295  1.00  0.00     0.169 C 
BRANCH  11  12
HETATM   12  C13 BES   501      36.785  19.123 200.008  1.00  0.00     0.091 C 
BRANCH  12  13
HETATM   13  C7  BES   501      37.455  17.737 200.040  1.00  0.00     0.053 A 
HETATM   14  C14 BES   501      38.115  17.079 201.267  1.00  0.00     0.116 A 
HETATM   15  N15 BES   501      38.651  15.701 200.837  1.00  0.00    -0.359 N 
HETATM   16  C16 BES   501      38.321  15.506 199.345  1.00  0.00     0.207 A 
HETATM   17  H13 BES   501      39.162  15.000 201.465  1.00  0.00     0.166 HD
HETATM   18  N17 BES   501      37.582  16.764 198.853  1.00  0.00    -0.247 N 
ENDBRANCH  12  13
ENDBRANCH  11  12
BRANCH  11  19
HETATM   19  C5  BES   501      34.892  19.501 201.671  1.00  0.00     0.192 C 
HETATM   20  O1  BES   501      34.540  20.701 201.823  1.00  0.00    -0.647 OA
HETATM   21  O4  BES   501      34.897  18.727 202.665  1.00  0.00    -0.647 OA
ENDBRANCH  11  19
ENDBRANCH   9  11
ENDBRANCH   6   7
ENDBRANCH   5   6
ENDBRANCH   1   5
TORSDOF 7
REMARK  8 active torsions:
REMARK  status: ('A' for Active; 'I' for Inactive)
REMARK    1  A    between atoms: C70_1  and  C1_2 
REMARK    2  A    between atoms: C70_1  and  N12_19 
REMARK    3  A    between atoms: C1_2  and  C2_3 
REMARK    4  A    between atoms: C2_3  and  C3_4 
REMARK       I    between atoms: C3_4  and  N1_6 
REMARK    5  A    between atoms: N1_6  and  C4_7 
REMARK    6  A    between atoms: C4_7  and  C13_8 
REMARK    7  A    between atoms: C4_7  and  C5_10 
REMARK    8  A    between atoms: C13_8  and  C7_9 
ROOT
HETATM    1  C70 BES A 501      34.654  15.601 204.923  1.00  6.08     0.230 C 
ENDROOT
BRANCH   1   2
HETATM    2  C1  BES A 501      34.477  14.786 203.787  1.00  6.71     0.036 C 
BRANCH   2   3
HETATM    3  C2  BES A 501      35.365  15.045 202.609  1.00  9.09     0.098 C 
BRANCH   3   4
HETATM    4  C3  BES A 501      34.519  15.484 201.448  1.00  8.29     0.198 C 
HETATM    5  O3  BES A 501      34.905  15.196 200.338  1.00  7.85    -0.280 OA
HETATM    6  N1  BES A 501      33.278  16.228 201.707  1.00  8.97    -0.248 NA
HETATM    7  H7  BES A 501      33.572  17.093 202.264  1.00  8.27     0.131 HD
BRANCH   6   8
HETATM    8  C4  BES A 501      32.374  16.721 200.667  1.00 10.85     0.169 C 
BRANCH   8   9
HETATM    9  C13 BES A 501      31.320  15.654 200.356  1.00  8.22     0.089 C 
BRANCH   9  10
HETATM   10  C7  BES A 501      31.518  15.097 198.933  1.00 11.21     0.029 A 
HETATM   11  C21 BES A 501      30.443  14.405 198.074  1.00  0.00     0.143 A 
HETATM   12  N22 BES A 501      31.087  14.016 196.730  1.00  0.00    -0.254 N 
HETATM   13  C23 BES A 501      32.559  14.467 196.758  1.00  0.00     0.207 A 
HETATM   14  N24 BES A 501      32.826  15.136 198.120  1.00  0.00    -0.353 N 
HETATM   15  H13 BES A 501      33.756  15.554 198.444  1.00  8.23     0.166 HD
ENDBRANCH   9  10
ENDBRANCH   8   9
BRANCH   8  16
HETATM   16  C5  BES A 501      31.682  17.928 201.210  1.00 10.09     0.192 C 
HETATM   17  O1  BES A 501      31.255  17.914 202.397  1.00  5.58    -0.647 OA
HETATM   18  O4  BES A 501      31.598  18.941 200.450  1.00  5.29    -0.647 OA
ENDBRANCH   8  16
ENDBRANCH   6   8
ENDBRANCH   3   4
ENDBRANCH   2   3
ENDBRANCH   1   2
BRANCH   1  19
HETATM   19  N12 BES A 501      33.850  16.882 204.759  1.00  8.22    -0.079 N 
HETATM   20  H14 BES A 501      34.429  17.599 204.216  1.00  8.22     0.274 HD
HETATM   21  H15 BES A 501      33.606  17.276 205.722  1.00  8.22     0.274 HD
HETATM   22  H6  BES A 501      32.949  16.671 204.221  1.00  8.22     0.274 HD
ENDBRANCH   1  19
TORSDOF 8
ENDMDL
