MODEL 1
REMARK VINA RESULT:    -2.879      0.000      0.000
REMARK INTER + INTRA:          -9.320
REMARK INTER:                  -5.825
REMARK INTRA:                  -3.495
REMARK UNBOUND:                -3.495
REMARK  Name = Acarbose.pdb
REMARK  23 active torsions:
REMARK  status: ('A' for Active; 'I' for Inactive)
REMARK    1  A    between atoms: O1_1  and  C22_22
REMARK    2  A    between atoms: O1_1  and  C25_25
REMARK    3  A    between atoms: O4_4  and  C30_30
REMARK    4  A    between atoms: O4_4  and  C32_32
REMARK    5  A    between atoms: O5_5  and  C21_21
REMARK    6  A    between atoms: O6_6  and  C23_23
REMARK    7  A    between atoms: O7_7  and  C26_26
REMARK    8  A    between atoms: O9_9  and  C29_29
REMARK    9  A    between atoms: O10_10  and  C31_31
REMARK   10  A    between atoms: O11_11  and  C33_33
REMARK   11  A    between atoms: O12_12  and  C34_34
REMARK   12  A    between atoms: O13_13  and  C38_38
REMARK   13  A    between atoms: O14_14  and  C39_39
REMARK   14  A    between atoms: O15_15  and  C40_40
REMARK   15  A    between atoms: O16_16  and  C42_42
REMARK   16  A    between atoms: O17_17  and  C43_43
REMARK   17  A    between atoms: O18_18  and  C44_44
REMARK   18  A    between atoms: N19_19  and  C20_20
REMARK   19  A    between atoms: N19_19  and  C28_28
REMARK   20  A    between atoms: C24_24  and  C35_35
REMARK   21  A    between atoms: C27_27  and  C39_39
REMARK   22  A    between atoms: C36_36  and  C43_43
REMARK   23  A    between atoms: C41_41  and  C44_44
REMARK                            x       y       z     vdW  Elec       q    Type
REMARK                         _______ _______ _______ _____ _____    ______ ____
ROOT
ATOM      1  O1  UNK     0      41.841  15.763 192.050  0.00  0.00    +0.000 OA
ENDROOT
BRANCH   1   7
ATOM      2  O2  UNK     0      41.147  17.982 192.330  0.00  0.00    +0.000 OA
ATOM      3  C20 UNK     0      40.936  19.058 194.542  0.00  0.00    +0.000 C 
ATOM      4  C21 UNK     0      41.684  17.864 195.165  0.00  0.00    +0.000 C 
ATOM      5  C23 UNK     0      41.626  16.612 194.284  0.00  0.00    +0.000 C 
ATOM      6  C24 UNK     0      41.232  19.227 193.036  0.00  0.00    +0.000 C 
ATOM      7  C25 UNK     0      41.987  16.945 192.835  0.00  0.00    +0.000 C 
ATOM      8  C35 UNK     0      42.562  19.927 192.751  0.00  0.00    +0.000 C 
BRANCH   4   9
ATOM      9  O5  UNK     0      43.055  18.206 195.366  0.00  0.00    +0.000 OA
ATOM     10  H70 UNK     0      43.547  17.928 194.574  0.00  0.00    +0.000 HD
ENDBRANCH   4   9
BRANCH   5  11
ATOM     11  O6  UNK     0      40.311  16.059 194.315  0.00  0.00    +0.000 OA
ATOM     12  H72 UNK     0      39.690  16.767 194.072  0.00  0.00    +0.000 HD
ENDBRANCH   5  11
BRANCH   3  13
ATOM     13  N19 UNK     0      39.489  18.867 194.715  0.00  0.00    +0.000 NA
ATOM     14  H55 UNK     0      39.153  19.435 195.491  0.00  0.00    +0.000 HD
BRANCH  13  15
ATOM     15  C28 UNK     0      38.773  19.206 193.482  0.00  0.00    +0.000 C 
ATOM     16  C31 UNK     0      38.055  20.566 193.622  0.00  0.00    +0.000 C 
ATOM     17  C33 UNK     0      37.089  20.807 192.453  0.00  0.00    +0.000 C 
ATOM     18  C37 UNK     0      37.852  18.092 193.058  0.00  0.00    +0.000 C 
ATOM     19  C38 UNK     0      36.059  19.671 192.301  0.00  0.00    +0.000 C 
ATOM     20  C41 UNK     0      36.626  18.289 192.538  0.00  0.00    +0.000 C 
BRANCH  16  21
ATOM     21  O10 UNK     0      37.340  20.655 194.854  0.00  0.00    +0.000 OA
ATOM     22  H77 UNK     0      36.443  20.969 194.651  0.00  0.00    +0.000 HD
ENDBRANCH  16  21
BRANCH  17  23
ATOM     23  O11 UNK     0      37.827  20.911 191.236  0.00  0.00    +0.000 OA
ATOM     24  H80 UNK     0      38.769  20.808 191.453  0.00  0.00    +0.000 HD
ENDBRANCH  17  23
BRANCH  19  25
ATOM     25  O13 UNK     0      34.991  19.866 193.227  0.00  0.00    +0.000 OA
ATOM     26  H82 UNK     0      34.789  20.817 193.246  0.00  0.00    +0.000 HD
ENDBRANCH  19  25
BRANCH  20  27
ATOM     27  C44 UNK     0      35.751  17.135 192.142  0.00  0.00    +0.000 C 
BRANCH  27  28
ATOM     28  O18 UNK     0      36.428  15.918 192.390  0.00  0.00    +0.000 OA
ATOM     29  H87 UNK     0      35.752  15.225 192.480  0.00  0.00    +0.000 HD
ENDBRANCH  27  28
ENDBRANCH  20  27
ENDBRANCH  13  15
ENDBRANCH   3  13
ENDBRANCH   1   7
BRANCH   1  31
ATOM     30  O3  UNK     0      39.164  14.783 191.173  0.00  0.00    +0.000 OA
ATOM     31  C22 UNK     0      41.236  16.049 190.784  0.00  0.00    +0.000 C 
ATOM     32  C26 UNK     0      41.699  14.972 189.795  0.00  0.00    +0.000 C 
ATOM     33  C27 UNK     0      39.711  16.093 190.975  0.00  0.00    +0.000 C 
ATOM     34  C29 UNK     0      40.975  13.642 190.022  0.00  0.00    +0.000 C 
ATOM     35  C30 UNK     0      39.463  13.847 190.140  0.00  0.00    +0.000 C 
BRANCH  32  36
ATOM     36  O7  UNK     0      41.453  15.398 188.459  0.00  0.00    +0.000 OA
ATOM     37  H73 UNK     0      42.227  15.908 188.166  0.00  0.00    +0.000 HD
ENDBRANCH  32  36
BRANCH  34  38
ATOM     38  O9  UNK     0      41.469  13.026 191.211  0.00  0.00    +0.000 OA
ATOM     39  H74 UNK     0      42.168  13.599 191.570  0.00  0.00    +0.000 HD
ENDBRANCH  34  38
BRANCH  35  40
ATOM     40  O4  UNK     0      38.859  12.586 190.422  0.00  0.00    +0.000 OA
BRANCH  40  42
ATOM     41  O8  UNK     0      37.013  11.554 193.441  0.00  0.00    +0.000 OA
ATOM     42  C32 UNK     0      37.897  12.694 191.469  0.00  0.00    +0.000 C 
ATOM     43  C34 UNK     0      36.504  12.687 190.835  0.00  0.00    +0.000 C 
ATOM     44  C36 UNK     0      38.059  11.537 192.463  0.00  0.00    +0.000 C 
ATOM     45  C40 UNK     0      35.425  12.575 191.911  0.00  0.00    +0.000 C 
ATOM     46  C42 UNK     0      35.707  11.423 192.876  0.00  0.00    +0.000 C 
BRANCH  43  47
ATOM     47  O12 UNK     0      36.329  13.916 190.124  0.00  0.00    +0.000 OA
ATOM     48  H81 UNK     0      37.032  14.529 190.399  0.00  0.00    +0.000 HD
ENDBRANCH  43  47
BRANCH  45  49
ATOM     49  O15 UNK     0      34.157  12.400 191.289  0.00  0.00    +0.000 OA
ATOM     50  H84 UNK     0      33.886  13.261 190.927  0.00  0.00    +0.000 HD
ENDBRANCH  45  49
BRANCH  46  51
ATOM     51  O16 UNK     0      35.503  10.144 192.278  0.00  0.00    +0.000 OA
ATOM     52  H85 UNK     0      35.736  10.227 191.338  0.00  0.00    +0.000 HD
ENDBRANCH  46  51
BRANCH  44  53
ATOM     53  C43 UNK     0      39.381  11.614 193.222  0.00  0.00    +0.000 C 
BRANCH  53  54
ATOM     54  O17 UNK     0      39.677  12.976 193.473  0.00  0.00    +0.000 OA
ATOM     55  H86 UNK     0      40.148  13.316 192.694  0.00  0.00    +0.000 HD
ENDBRANCH  53  54
ENDBRANCH  44  53
ENDBRANCH  40  42
ENDBRANCH  35  40
BRANCH  33  56
ATOM     56  C39 UNK     0      38.974  16.838 189.864  0.00  0.00    +0.000 C 
BRANCH  56  57
ATOM     57  O14 UNK     0      39.777  17.923 189.439  0.00  0.00    +0.000 OA
ATOM     58  H83 UNK     0      40.365  17.589 188.741  0.00  0.00    +0.000 HD
ENDBRANCH  56  57
ENDBRANCH  33  56
ENDBRANCH   1  31
TORSDOF 22
REMARK  Name = Brazilin.pdb
REMARK  4 active torsions:
REMARK  status: ('A' for Active; 'I' for Inactive)
REMARK    1  A    between atoms: C3_3  and  O3_6
REMARK    2  A    between atoms: C4_4  and  O4_7
REMARK    3  A    between atoms: C10_10  and  O1_16
REMARK    4  A    between atoms: C19_19  and  O1_21
REMARK                            x       y       z     vdW  Elec       q    Type
REMARK                         _______ _______ _______ _____ _____    ______ ____
ROOT
ATOM      1 3C45 GLC     4      35.320  15.322 195.832  0.00  0.00    +0.000 A 
ATOM      2  C2  GLC     4      34.217  16.060 195.206  0.00  0.00    +0.000 A 
ATOM      3  C3  GLC     4      34.197  17.388 195.361  0.00  0.00    +0.000 A 
ATOM      4  C4  GLC     4      35.258  18.066 196.118  0.00  0.00    +0.000 A 
ATOM      5  C5  GLC     4      36.268  17.381 196.671  0.00  0.00    +0.000 A 
ATOM      6 3C45 GLC     4      36.275  15.939 196.518  0.00  0.00    +0.000 A 
ATOM      7  C9  GLC     4      37.227  14.898 197.099  0.00  0.00    +0.000 C 
ATOM      8  C10 GLC     4      37.076  13.848 196.044  0.00  0.00    +0.000 C 
ATOM      9  C11 GLC     4      35.534  13.825 195.881  0.00  0.00    +0.000 C 
ATOM     10  C12 GLC     4      37.779  12.550 196.425  0.00  0.00    +0.000 C 
ATOM     11  O13 GLC     4      39.163  12.866 196.602  0.00  0.00    +0.000 OA
ATOM     12  C14 GLC     4      39.611  14.053 197.088  0.00  0.00    +0.000 A 
ATOM     13  C15 GLC     4      38.678  15.160 197.370  0.00  0.00    +0.000 A 
ATOM     14  C17 GLC     4      39.150  16.302 197.863  0.00  0.00    +0.000 A 
ATOM     15  C18 GLC     4      40.581  16.443 198.097  0.00  0.00    +0.000 A 
ATOM     16  C19 GLC     4      41.411  15.436 197.831  0.00  0.00    +0.000 A 
ATOM     17  C20 GLC     4      40.911  14.196 197.310  0.00  0.00    +0.000 A 
ENDROOT
BRANCH   3  18
ATOM     18  O3  GLC     4      33.186  18.177 194.835  0.00  0.00    +0.000 OA
ATOM     19  H3  GLC     4      33.406  18.525 193.921  0.00  0.00    +0.000 HD
ENDBRANCH   3  18
BRANCH   4  20
ATOM     20  O4  GLC     4      35.173  19.431 196.254  0.00  0.00    +0.000 OA
ATOM     21  H4  GLC     4      36.076  19.802 196.547  0.00  0.00    +0.000 HD
ENDBRANCH   4  20
BRANCH   8  22
ATOM     22  O1  GLC     4      37.690  14.309 194.825  0.00  0.00    +0.000 OA
ATOM     23  H10 GLC     4      38.553  14.738 195.006  0.00  0.00    +0.000 HD
ENDBRANCH   8  22
BRANCH  16  24
ATOM     24  O1  GLC     4      42.740  15.571 198.052  0.00  0.00    +0.000 OA
ATOM     25  H14 GLC     4      42.923  16.500 198.143  0.00  0.00    +0.000 HD
ENDBRANCH  16  24
TORSDOF 4
ENDMDL
MODEL 2
REMARK VINA RESULT:    -2.867      2.903      7.628
REMARK INTER + INTRA:          -9.296
REMARK INTER:                  -5.791
REMARK INTRA:                  -3.505
REMARK UNBOUND:                -3.495
REMARK  Name = Acarbose.pdb
REMARK  23 active torsions:
REMARK  status: ('A' for Active; 'I' for Inactive)
REMARK    1  A    between atoms: O1_1  and  C22_22
REMARK    2  A    between atoms: O1_1  and  C25_25
REMARK    3  A    between atoms: O4_4  and  C30_30
REMARK    4  A    between atoms: O4_4  and  C32_32
REMARK    5  A    between atoms: O5_5  and  C21_21
REMARK    6  A    between atoms: O6_6  and  C23_23
REMARK    7  A    between atoms: O7_7  and  C26_26
REMARK    8  A    between atoms: O9_9  and  C29_29
REMARK    9  A    between atoms: O10_10  and  C31_31
REMARK   10  A    between atoms: O11_11  and  C33_33
REMARK   11  A    between atoms: O12_12  and  C34_34
REMARK   12  A    between atoms: O13_13  and  C38_38
REMARK   13  A    between atoms: O14_14  and  C39_39
REMARK   14  A    between atoms: O15_15  and  C40_40
REMARK   15  A    between atoms: O16_16  and  C42_42
REMARK   16  A    between atoms: O17_17  and  C43_43
REMARK   17  A    between atoms: O18_18  and  C44_44
REMARK   18  A    between atoms: N19_19  and  C20_20
REMARK   19  A    between atoms: N19_19  and  C28_28
REMARK   20  A    between atoms: C24_24  and  C35_35
REMARK   21  A    between atoms: C27_27  and  C39_39
REMARK   22  A    between atoms: C36_36  and  C43_43
REMARK   23  A    between atoms: C41_41  and  C44_44
REMARK                            x       y       z     vdW  Elec       q    Type
REMARK                         _______ _______ _______ _____ _____    ______ ____
ROOT
ATOM      1  O1  UNK     0      39.331  10.185 194.844  0.00  0.00    +0.000 OA
ENDROOT
BRANCH   1   7
ATOM      2  O2  UNK     0      37.047  10.504 194.438  0.00  0.00    +0.000 OA
ATOM      3  C20 UNK     0      36.170  12.340 193.040  0.00  0.00    +0.000 C 
ATOM      4  C21 UNK     0      37.607  12.623 192.559  0.00  0.00    +0.000 C 
ATOM      5  C23 UNK     0      38.665  12.071 193.518  0.00  0.00    +0.000 C 
ATOM      6  C24 UNK     0      35.988  10.896 193.555  0.00  0.00    +0.000 C 
ATOM      7  C25 UNK     0      38.360  10.619 193.894  0.00  0.00    +0.000 C 
ATOM      8  C35 UNK     0      35.802   9.869 192.436  0.00  0.00    +0.000 C 
BRANCH   4   9
ATOM      9  O5  UNK     0      37.811  12.030 191.277  0.00  0.00    +0.000 OA
ATOM     10  H70 UNK     0      37.023  11.498 191.071  0.00  0.00    +0.000 HD
ENDBRANCH   4   9
BRANCH   5  11
ATOM     11  O6  UNK     0      38.698  12.857 194.709  0.00  0.00    +0.000 OA
ATOM     12  H72 UNK     0      39.185  12.349 195.380  0.00  0.00    +0.000 HD
ENDBRANCH   5  11
BRANCH   3  13
ATOM     13  N19 UNK     0      35.832  13.270 194.127  0.00  0.00    +0.000 NA
ATOM     14  H55 UNK     0      35.394  14.107 193.747  0.00  0.00    +0.000 HD
BRANCH  13  15
ATOM     15  C28 UNK     0      34.947  12.623 195.101  0.00  0.00    +0.000 C 
ATOM     16  C31 UNK     0      33.472  12.995 194.832  0.00  0.00    +0.000 C 
ATOM     17  C33 UNK     0      32.567  12.552 195.990  0.00  0.00    +0.000 C 
ATOM     18  C37 UNK     0      35.380  12.913 196.514  0.00  0.00    +0.000 C 
ATOM     19  C38 UNK     0      33.026  13.128 197.344  0.00  0.00    +0.000 C 
ATOM     20  C41 UNK     0      34.527  13.154 197.526  0.00  0.00    +0.000 C 
BRANCH  16  21
ATOM     21  O10 UNK     0      33.318  14.398 194.618  0.00  0.00    +0.000 OA
ATOM     22  H77 UNK     0      33.041  14.525 193.696  0.00  0.00    +0.000 HD
ENDBRANCH  16  21
BRANCH  17  23
ATOM     23  O11 UNK     0      32.570  11.129 196.083  0.00  0.00    +0.000 OA
ATOM     24  H80 UNK     0      32.166  10.888 196.934  0.00  0.00    +0.000 HD
ENDBRANCH  17  23
BRANCH  19  25
ATOM     25  O13 UNK     0      32.550  14.467 197.480  0.00  0.00    +0.000 OA
ATOM     26  H82 UNK     0      32.071  14.693 196.664  0.00  0.00    +0.000 HD
ENDBRANCH  19  25
BRANCH  20  27
ATOM     27  C44 UNK     0      35.023  13.444 198.914  0.00  0.00    +0.000 C 
BRANCH  27  28
ATOM     28  O18 UNK     0      36.430  13.308 198.954  0.00  0.00    +0.000 OA
ATOM     29  H87 UNK     0      36.776  14.043 199.488  0.00  0.00    +0.000 HD
ENDBRANCH  27  28
ENDBRANCH  20  27
ENDBRANCH  13  15
ENDBRANCH   3  13
ENDBRANCH   1   7
BRANCH   1  31
ATOM     30  O3  UNK     0      39.003  10.973 197.702  0.00  0.00    +0.000 OA
ATOM     31  C22 UNK     0      38.738   9.367 195.859  0.00  0.00    +0.000 C 
ATOM     32  C26 UNK     0      39.849   8.501 196.465  0.00  0.00    +0.000 C 
ATOM     33  C27 UNK     0      38.049  10.287 196.881  0.00  0.00    +0.000 C 
ATOM     34  C29 UNK     0      40.745   9.304 197.411  0.00  0.00    +0.000 C 
ATOM     35  C30 UNK     0      39.914  10.126 198.398  0.00  0.00    +0.000 C 
BRANCH  32  36
ATOM     36  O7  UNK     0      39.280   7.417 197.193  0.00  0.00    +0.000 OA
ATOM     37  H73 UNK     0      38.315   7.471 197.093  0.00  0.00    +0.000 HD
ENDBRANCH  32  36
BRANCH  34  38
ATOM     38  O9  UNK     0      41.583  10.175 196.650  0.00  0.00    +0.000 OA
ATOM     39  H74 UNK     0      41.481   9.935 195.713  0.00  0.00    +0.000 HD
ENDBRANCH  34  38
BRANCH  35  40
ATOM     40  O4  UNK     0      40.803  10.903 199.198  0.00  0.00    +0.000 OA
BRANCH  40  42
ATOM     41  O8  UNK     0      41.153  14.568 199.378  0.00  0.00    +0.000 OA
ATOM     42  C32 UNK     0      40.365  12.257 199.294  0.00  0.00    +0.000 C 
ATOM     43  C34 UNK     0      39.678  12.437 200.650  0.00  0.00    +0.000 C 
ATOM     44  C36 UNK     0      41.555  13.214 199.145  0.00  0.00    +0.000 C 
ATOM     45  C40 UNK     0      39.385  13.913 200.911  0.00  0.00    +0.000 C 
ATOM     46  C42 UNK     0      40.622  14.784 200.687  0.00  0.00    +0.000 C 
BRANCH  43  47
ATOM     47  O12 UNK     0      38.446  11.713 200.627  0.00  0.00    +0.000 OA
ATOM     48  H81 UNK     0      38.384  11.243 199.778  0.00  0.00    +0.000 HD
ENDBRANCH  43  47
BRANCH  45  49
ATOM     49  O15 UNK     0      38.905  14.071 202.242  0.00  0.00    +0.000 OA
ATOM     50  H84 UNK     0      39.585  13.717 202.842  0.00  0.00    +0.000 HD
ENDBRANCH  45  49
BRANCH  46  51
ATOM     51  O16 UNK     0      41.606  14.609 201.705  0.00  0.00    +0.000 OA
ATOM     52  H85 UNK     0      42.065  15.459 201.809  0.00  0.00    +0.000 HD
ENDBRANCH  46  51
BRANCH  44  53
ATOM     53  C43 UNK     0      42.159  13.162 197.743  0.00  0.00    +0.000 C 
BRANCH  53  54
ATOM     54  O17 UNK     0      41.111  12.989 196.808  0.00  0.00    +0.000 OA
ATOM     55  H86 UNK     0      40.275  13.021 197.304  0.00  0.00    +0.000 HD
ENDBRANCH  53  54
ENDBRANCH  44  53
ENDBRANCH  40  42
ENDBRANCH  35  40
BRANCH  33  56
ATOM     56  C39 UNK     0      36.994   9.581 197.731  0.00  0.00    +0.000 C 
BRANCH  56  57
ATOM     57  O14 UNK     0      36.624  10.439 198.794  0.00  0.00    +0.000 OA
ATOM     58  H83 UNK     0      36.134   9.901 199.439  0.00  0.00    +0.000 HD
ENDBRANCH  56  57
ENDBRANCH  33  56
ENDBRANCH   1  31
TORSDOF 22
REMARK  Name = Brazilin.pdb
REMARK  4 active torsions:
REMARK  status: ('A' for Active; 'I' for Inactive)
REMARK    1  A    between atoms: C3_3  and  O3_6
REMARK    2  A    between atoms: C4_4  and  O4_7
REMARK    3  A    between atoms: C10_10  and  O1_16
REMARK    4  A    between atoms: C19_19  and  O1_21
REMARK                            x       y       z     vdW  Elec       q    Type
REMARK                         _______ _______ _______ _____ _____    ______ ____
ROOT
ATOM      1 3C45 GLC     4      37.435  16.948 197.758  0.00  0.00    +0.000 A 
ATOM      2  C2  GLC     4      36.248  16.916 198.620  0.00  0.00    +0.000 A 
ATOM      3  C3  GLC     4      35.054  16.853 198.022  0.00  0.00    +0.000 A 
ATOM      4  C4  GLC     4      34.955  16.800 196.558  0.00  0.00    +0.000 A 
ATOM      5  C5  GLC     4      36.048  16.813 195.784  0.00  0.00    +0.000 A 
ATOM      6 3C45 GLC     4      37.340  16.904 196.434  0.00  0.00    +0.000 A 
ATOM      7  C9  GLC     4      38.735  17.026 195.827  0.00  0.00    +0.000 C 
ATOM      8  C10 GLC     4      39.515  16.396 196.938  0.00  0.00    +0.000 C 
ATOM      9  C11 GLC     4      38.884  17.101 198.167  0.00  0.00    +0.000 C 
ATOM     10  C12 GLC     4      41.019  16.528 196.726  0.00  0.00    +0.000 C 
ATOM     11  O13 GLC     4      41.321  15.876 195.489  0.00  0.00    +0.000 OA
ATOM     12  C14 GLC     4      40.481  15.854 194.421  0.00  0.00    +0.000 A 
ATOM     13  C15 GLC     4      39.124  16.424 194.510  0.00  0.00    +0.000 A 
ATOM     14  C17 GLC     4      38.334  16.401 193.440  0.00  0.00    +0.000 A 
ATOM     15  C18 GLC     4      38.820  15.797 192.206  0.00  0.00    +0.000 A 
ATOM     16  C19 GLC     4      40.046  15.281 192.144  0.00  0.00    +0.000 A 
ATOM     17  C20 GLC     4      40.909  15.311 193.290  0.00  0.00    +0.000 A 
ENDROOT
BRANCH   3  18
ATOM     18  O3  GLC     4      33.869  16.845 198.742  0.00  0.00    +0.000 OA
ATOM     19  H3  GLC     4      33.090  17.176 198.204  0.00  0.00    +0.000 HD
ENDBRANCH   3  18
BRANCH   4  20
ATOM     20  O4  GLC     4      33.698  16.750 196.005  0.00  0.00    +0.000 OA
ATOM     21  H4  GLC     4      33.069  16.249 196.632  0.00  0.00    +0.000 HD
ENDBRANCH   4  20
BRANCH   8  22
ATOM     22  O1  GLC     4      39.225  14.986 196.980  0.00  0.00    +0.000 OA
ATOM     23  H10 GLC     4      38.356  14.817 197.402  0.00  0.00    +0.000 HD
ENDBRANCH   8  22
BRANCH  16  24
ATOM     24  O1  GLC     4      40.494  14.723 190.995  0.00  0.00    +0.000 OA
ATOM     25  H14 GLC     4      40.047  15.153 190.274  0.00  0.00    +0.000 HD
ENDBRANCH  16  24
TORSDOF 4
ENDMDL
MODEL 3
REMARK VINA RESULT:    -2.864      4.177      9.230
REMARK INTER + INTRA:          -9.289
REMARK INTER:                  -5.776
REMARK INTRA:                  -3.513
REMARK UNBOUND:                -3.495
REMARK  Name = Acarbose.pdb
REMARK  23 active torsions:
REMARK  status: ('A' for Active; 'I' for Inactive)
REMARK    1  A    between atoms: O1_1  and  C22_22
REMARK    2  A    between atoms: O1_1  and  C25_25
REMARK    3  A    between atoms: O4_4  and  C30_30
REMARK    4  A    between atoms: O4_4  and  C32_32
REMARK    5  A    between atoms: O5_5  and  C21_21
REMARK    6  A    between atoms: O6_6  and  C23_23
REMARK    7  A    between atoms: O7_7  and  C26_26
REMARK    8  A    between atoms: O9_9  and  C29_29
REMARK    9  A    between atoms: O10_10  and  C31_31
REMARK   10  A    between atoms: O11_11  and  C33_33
REMARK   11  A    between atoms: O12_12  and  C34_34
REMARK   12  A    between atoms: O13_13  and  C38_38
REMARK   13  A    between atoms: O14_14  and  C39_39
REMARK   14  A    between atoms: O15_15  and  C40_40
REMARK   15  A    between atoms: O16_16  and  C42_42
REMARK   16  A    between atoms: O17_17  and  C43_43
REMARK   17  A    between atoms: O18_18  and  C44_44
REMARK   18  A    between atoms: N19_19  and  C20_20
REMARK   19  A    between atoms: N19_19  and  C28_28
REMARK   20  A    between atoms: C24_24  and  C35_35
REMARK   21  A    between atoms: C27_27  and  C39_39
REMARK   22  A    between atoms: C36_36  and  C43_43
REMARK   23  A    between atoms: C41_41  and  C44_44
REMARK                            x       y       z     vdW  Elec       q    Type
REMARK                         _______ _______ _______ _____ _____    ______ ____
ROOT
ATOM      1  O1  UNK     0      38.526  16.231 200.369  0.00  0.00    +0.000 OA
ENDROOT
BRANCH   1   7
ATOM      2  O2  UNK     0      39.980  14.969 201.702  0.00  0.00    +0.000 OA
ATOM      3  C20 UNK     0      42.352  14.596 201.127  0.00  0.00    +0.000 C 
ATOM      4  C21 UNK     0      42.230  15.680 200.039  0.00  0.00    +0.000 C 
ATOM      5  C23 UNK     0      40.780  15.919 199.609  0.00  0.00    +0.000 C 
ATOM      6  C24 UNK     0      41.290  14.747 202.238  0.00  0.00    +0.000 C 
ATOM      7  C25 UNK     0      39.869  16.090 200.827  0.00  0.00    +0.000 C 
ATOM      8  C35 UNK     0      41.643  15.813 203.278  0.00  0.00    +0.000 C 
BRANCH   4   9
ATOM      9  O5  UNK     0      42.763  16.912 200.524  0.00  0.00    +0.000 OA
ATOM     10  H70 UNK     0      42.666  16.913 201.491  0.00  0.00    +0.000 HD
ENDBRANCH   4   9
BRANCH   5  11
ATOM     11  O6  UNK     0      40.314  14.812 198.838  0.00  0.00    +0.000 OA
ATOM     12  H72 UNK     0      39.703  15.161 198.166  0.00  0.00    +0.000 HD
ENDBRANCH   5  11
BRANCH   3  13
ATOM     13  N19 UNK     0      42.198  13.271 200.511  0.00  0.00    +0.000 NA
ATOM     14  H55 UNK     0      43.108  12.908 200.233  0.00  0.00    +0.000 HD
BRANCH  13  15
ATOM     15  C28 UNK     0      41.536  12.346 201.436  0.00  0.00    +0.000 C 
ATOM     16  C31 UNK     0      42.574  11.472 202.174  0.00  0.00    +0.000 C 
ATOM     17  C33 UNK     0      41.895  10.326 202.935  0.00  0.00    +0.000 C 
ATOM     18  C37 UNK     0      40.473  11.538 200.739  0.00  0.00    +0.000 C 
ATOM     19  C38 UNK     0      41.016   9.454 202.018  0.00  0.00    +0.000 C 
ATOM     20  C41 UNK     0      40.239  10.236 200.983  0.00  0.00    +0.000 C 
BRANCH  16  21
ATOM     21  O10 UNK     0      43.540  10.935 201.270  0.00  0.00    +0.000 OA
ATOM     22  H77 UNK     0      44.135  11.659 201.013  0.00  0.00    +0.000 HD
ENDBRANCH  16  21
BRANCH  17  23
ATOM     23  O11 UNK     0      41.071  10.861 203.971  0.00  0.00    +0.000 OA
ATOM     24  H80 UNK     0      40.179  10.981 203.605  0.00  0.00    +0.000 HD
ENDBRANCH  17  23
BRANCH  19  25
ATOM     25  O13 UNK     0      41.835   8.512 201.325  0.00  0.00    +0.000 OA
ATOM     26  H82 UNK     0      42.614   8.989 200.993  0.00  0.00    +0.000 HD
ENDBRANCH  19  25
BRANCH  20  27
ATOM     27  C44 UNK     0      39.168   9.483 200.247  0.00  0.00    +0.000 C 
BRANCH  27  28
ATOM     28  O18 UNK     0      38.418  10.380 199.451  0.00  0.00    +0.000 OA
ATOM     29  H87 UNK     0      38.693  10.245 198.528  0.00  0.00    +0.000 HD
ENDBRANCH  27  28
ENDBRANCH  20  27
ENDBRANCH  13  15
ENDBRANCH   3  13
ENDBRANCH   1   7
BRANCH   1  31
ATOM     30  O3  UNK     0      36.978  13.790 199.634  0.00  0.00    +0.000 OA
ATOM     31  C22 UNK     0      37.607  15.551 201.231  0.00  0.00    +0.000 C 
ATOM     32  C26 UNK     0      36.230  16.199 201.046  0.00  0.00    +0.000 C 
ATOM     33  C27 UNK     0      37.634  14.054 200.882  0.00  0.00    +0.000 C 
ATOM     34  C29 UNK     0      35.568  15.767 199.735  0.00  0.00    +0.000 C 
ATOM     35  C30 UNK     0      35.630  14.249 199.557  0.00  0.00    +0.000 C 
BRANCH  32  36
ATOM     36  O7  UNK     0      35.372  15.840 202.125  0.00  0.00    +0.000 OA
ATOM     37  H73 UNK     0      35.890  15.902 202.945  0.00  0.00    +0.000 HD
ENDBRANCH  32  36
BRANCH  34  38
ATOM     38  O9  UNK     0      36.223  16.405 198.638  0.00  0.00    +0.000 OA
ATOM     39  H74 UNK     0      35.726  17.215 198.431  0.00  0.00    +0.000 HD
ENDBRANCH  34  38
BRANCH  35  40
ATOM     40  O4  UNK     0      35.066  13.921 198.289  0.00  0.00    +0.000 OA
BRANCH  40  42
ATOM     41  O8  UNK     0      36.699  12.431 195.339  0.00  0.00    +0.000 OA
ATOM     42  C32 UNK     0      35.894  13.007 197.573  0.00  0.00    +0.000 C 
ATOM     43  C34 UNK     0      35.294  11.607 197.723  0.00  0.00    +0.000 C 
ATOM     44  C36 UNK     0      35.986  13.415 196.097  0.00  0.00    +0.000 C 
ATOM     45  C40 UNK     0      36.004  10.618 196.800  0.00  0.00    +0.000 C 
ATOM     46  C42 UNK     0      36.084  11.142 195.365  0.00  0.00    +0.000 C 
BRANCH  43  47
ATOM     47  O12 UNK     0      35.469  11.188 199.079  0.00  0.00    +0.000 OA
ATOM     48  H81 UNK     0      35.880  11.918 199.573  0.00  0.00    +0.000 HD
ENDBRANCH  43  47
BRANCH  45  49
ATOM     49  O15 UNK     0      35.320   9.370 196.832  0.00  0.00    +0.000 OA
ATOM     50  H84 UNK     0      35.817   8.778 197.422  0.00  0.00    +0.000 HD
ENDBRANCH  45  49
BRANCH  46  51
ATOM     51  O16 UNK     0      34.818  11.133 194.707  0.00  0.00    +0.000 OA
ATOM     52  H85 UNK     0      34.222  11.699 195.225  0.00  0.00    +0.000 HD
ENDBRANCH  46  51
BRANCH  44  53
ATOM     53  C43 UNK     0      36.723  14.740 195.914  0.00  0.00    +0.000 C 
BRANCH  53  54
ATOM     54  O17 UNK     0      37.768  14.809 196.866  0.00  0.00    +0.000 OA
ATOM     55  H86 UNK     0      37.606  15.596 197.413  0.00  0.00    +0.000 HD
ENDBRANCH  53  54
ENDBRANCH  44  53
ENDBRANCH  40  42
ENDBRANCH  35  40
BRANCH  33  56
ATOM     56  C39 UNK     0      37.093  13.154 201.991  0.00  0.00    +0.000 C 
BRANCH  56  57
ATOM     57  O14 UNK     0      36.993  11.833 201.491  0.00  0.00    +0.000 OA
ATOM     58  H83 UNK     0      37.606  11.763 200.741  0.00  0.00    +0.000 HD
ENDBRANCH  56  57
ENDBRANCH  33  56
ENDBRANCH   1  31
TORSDOF 22
REMARK  Name = Brazilin.pdb
REMARK  4 active torsions:
REMARK  status: ('A' for Active; 'I' for Inactive)
REMARK    1  A    between atoms: C3_3  and  O3_6
REMARK    2  A    between atoms: C4_4  and  O4_7
REMARK    3  A    between atoms: C10_10  and  O1_16
REMARK    4  A    between atoms: C19_19  and  O1_21
REMARK                            x       y       z     vdW  Elec       q    Type
REMARK                         _______ _______ _______ _____ _____    ______ ____
ROOT
ATOM      1 3C45 GLC     4      40.798  10.290 196.213  0.00  0.00    +0.000 A 
ATOM      2  C2  GLC     4      40.690   9.000 196.905  0.00  0.00    +0.000 A 
ATOM      3  C3  GLC     4      41.618   8.713 197.822  0.00  0.00    +0.000 A 
ATOM      4  C4  GLC     4      42.690   9.671 198.125  0.00  0.00    +0.000 A 
ATOM      5  C5  GLC     4      42.767  10.852 197.497  0.00  0.00    +0.000 A 
ATOM      6 3C45 GLC     4      41.770  11.152 196.488  0.00  0.00    +0.000 A 
ATOM      7  C9  GLC     4      41.650  12.356 195.558  0.00  0.00    +0.000 C 
ATOM      8  C10 GLC     4      40.168  12.332 195.357  0.00  0.00    +0.000 C 
ATOM      9  C11 GLC     4      39.939  10.823 195.088  0.00  0.00    +0.000 C 
ATOM     10  C12 GLC     4      39.719  13.330 194.295  0.00  0.00    +0.000 C 
ATOM     11  O13 GLC     4      40.130  14.625 194.744  0.00  0.00    +0.000 OA
ATOM     12  C14 GLC     4      41.261  14.853 195.460  0.00  0.00    +0.000 A 
ATOM     13  C15 GLC     4      42.106  13.737 195.924  0.00  0.00    +0.000 A 
ATOM     14  C17 GLC     4      43.216  13.998 196.608  0.00  0.00    +0.000 A 
ATOM     15  C18 GLC     4      43.568  15.382 196.900  0.00  0.00    +0.000 A 
ATOM     16  C19 GLC     4      42.791  16.378 196.479  0.00  0.00    +0.000 A 
ATOM     17  C20 GLC     4      41.596  16.107 195.731  0.00  0.00    +0.000 A 
ENDROOT
BRANCH   3  18
ATOM     18  O3  GLC     4      41.625   7.511 198.513  0.00  0.00    +0.000 OA
ATOM     19  H3  GLC     4      42.539   7.103 198.567  0.00  0.00    +0.000 HD
ENDBRANCH   3  18
BRANCH   4  20
ATOM     20  O4  GLC     4      43.622   9.309 199.068  0.00  0.00    +0.000 OA
ATOM     21  H4  GLC     4      44.559   9.463 198.697  0.00  0.00    +0.000 HD
ENDBRANCH   4  20
BRANCH   8  22
ATOM     22  O1  GLC     4      39.517  12.715 196.584  0.00  0.00    +0.000 OA
ATOM     23  H10 GLC     4      38.998  13.538 196.466  0.00  0.00    +0.000 HD
ENDBRANCH   8  22
BRANCH  16  24
ATOM     24  O1  GLC     4      43.122  17.663 196.750  0.00  0.00    +0.000 OA
ATOM     25  H14 GLC     4      43.688  17.658 197.515  0.00  0.00    +0.000 HD
ENDBRANCH  16  24
TORSDOF 4
ENDMDL
MODEL 4
REMARK VINA RESULT:    -2.837      2.489      6.883
REMARK INTER + INTRA:          -9.234
REMARK INTER:                  -5.954
REMARK INTRA:                  -3.280
REMARK UNBOUND:                -3.495
REMARK  Name = Acarbose.pdb
REMARK  23 active torsions:
REMARK  status: ('A' for Active; 'I' for Inactive)
REMARK    1  A    between atoms: O1_1  and  C22_22
REMARK    2  A    between atoms: O1_1  and  C25_25
REMARK    3  A    between atoms: O4_4  and  C30_30
REMARK    4  A    between atoms: O4_4  and  C32_32
REMARK    5  A    between atoms: O5_5  and  C21_21
REMARK    6  A    between atoms: O6_6  and  C23_23
REMARK    7  A    between atoms: O7_7  and  C26_26
REMARK    8  A    between atoms: O9_9  and  C29_29
REMARK    9  A    between atoms: O10_10  and  C31_31
REMARK   10  A    between atoms: O11_11  and  C33_33
REMARK   11  A    between atoms: O12_12  and  C34_34
REMARK   12  A    between atoms: O13_13  and  C38_38
REMARK   13  A    between atoms: O14_14  and  C39_39
REMARK   14  A    between atoms: O15_15  and  C40_40
REMARK   15  A    between atoms: O16_16  and  C42_42
REMARK   16  A    between atoms: O17_17  and  C43_43
REMARK   17  A    between atoms: O18_18  and  C44_44
REMARK   18  A    between atoms: N19_19  and  C20_20
REMARK   19  A    between atoms: N19_19  and  C28_28
REMARK   20  A    between atoms: C24_24  and  C35_35
REMARK   21  A    between atoms: C27_27  and  C39_39
REMARK   22  A    between atoms: C36_36  and  C43_43
REMARK   23  A    between atoms: C41_41  and  C44_44
REMARK                            x       y       z     vdW  Elec       q    Type
REMARK                         _______ _______ _______ _____ _____    ______ ____
ROOT
ATOM      1  O1  UNK     0      38.312  13.874 195.724  0.00  0.00    +0.000 OA
ENDROOT
BRANCH   1   7
ATOM      2  O2  UNK     0      37.949  13.217 193.506  0.00  0.00    +0.000 OA
ATOM      3  C20 UNK     0      38.565  14.618 191.568  0.00  0.00    +0.000 C 
ATOM      4  C21 UNK     0      39.365  15.532 192.517  0.00  0.00    +0.000 C 
ATOM      5  C23 UNK     0      38.911  15.403 193.974  0.00  0.00    +0.000 C 
ATOM      6  C24 UNK     0      38.370  13.195 192.135  0.00  0.00    +0.000 C 
ATOM      7  C25 UNK     0      38.810  13.934 194.389  0.00  0.00    +0.000 C 
ATOM      8  C35 UNK     0      39.592  12.294 191.954  0.00  0.00    +0.000 C 
BRANCH   4   9
ATOM      9  O5  UNK     0      40.752  15.202 192.448  0.00  0.00    +0.000 OA
ATOM     10  H70 UNK     0      40.897  14.426 193.016  0.00  0.00    +0.000 HD
ENDBRANCH   4   9
BRANCH   5  11
ATOM     11  O6  UNK     0      37.633  16.016 194.140  0.00  0.00    +0.000 OA
ATOM     12  H72 UNK     0      37.756  16.977 194.048  0.00  0.00    +0.000 HD
ENDBRANCH   5  11
BRANCH   3  13
ATOM     13  N19 UNK     0      37.242  15.210 191.326  0.00  0.00    +0.000 NA
ATOM     14  H55 UNK     0      37.168  15.516 190.357  0.00  0.00    +0.000 HD
BRANCH  13  15
ATOM     15  C28 UNK     0      36.181  14.250 191.644  0.00  0.00    +0.000 C 
ATOM     16  C31 UNK     0      35.535  13.699 190.354  0.00  0.00    +0.000 C 
ATOM     17  C33 UNK     0      34.257  12.908 190.666  0.00  0.00    +0.000 C 
ATOM     18  C37 UNK     0      35.178  14.836 192.603  0.00  0.00    +0.000 C 
ATOM     19  C38 UNK     0      33.235  13.740 191.464  0.00  0.00    +0.000 C 
ATOM     20  C41 UNK     0      33.852  14.625 192.524  0.00  0.00    +0.000 C 
BRANCH  16  21
ATOM     21  O10 UNK     0      35.232  14.747 189.434  0.00  0.00    +0.000 OA
ATOM     22  H77 UNK     0      34.868  15.489 189.945  0.00  0.00    +0.000 HD
ENDBRANCH  16  21
BRANCH  17  23
ATOM     23  O11 UNK     0      34.587  11.748 191.429  0.00  0.00    +0.000 OA
ATOM     24  H80 UNK     0      35.131  11.171 190.868  0.00  0.00    +0.000 HD
ENDBRANCH  17  23
BRANCH  19  25
ATOM     25  O13 UNK     0      32.501  14.579 190.573  0.00  0.00    +0.000 OA
ATOM     26  H82 UNK     0      31.598  14.222 190.510  0.00  0.00    +0.000 HD
ENDBRANCH  19  25
BRANCH  20  27
ATOM     27  C44 UNK     0      32.902  15.246 193.508  0.00  0.00    +0.000 C 
BRANCH  27  28
ATOM     28  O18 UNK     0      33.624  15.748 194.615  0.00  0.00    +0.000 OA
ATOM     29  H87 UNK     0      34.568  15.718 194.381  0.00  0.00    +0.000 HD
ENDBRANCH  27  28
ENDBRANCH  20  27
ENDBRANCH  13  15
ENDBRANCH   3  13
ENDBRANCH   1   7
BRANCH   1  31
ATOM     30  O3  UNK     0      35.475  14.239 196.567  0.00  0.00    +0.000 OA
ATOM     31  C22 UNK     0      37.359  12.817 195.878  0.00  0.00    +0.000 C 
ATOM     32  C26 UNK     0      37.477  12.292 197.314  0.00  0.00    +0.000 C 
ATOM     33  C27 UNK     0      35.964  13.369 195.538  0.00  0.00    +0.000 C 
ATOM     34  C29 UNK     0      36.826  13.242 198.323  0.00  0.00    +0.000 C 
ATOM     35  C30 UNK     0      35.426  13.660 197.868  0.00  0.00    +0.000 C 
BRANCH  32  36
ATOM     36  O7  UNK     0      36.847  11.019 197.421  0.00  0.00    +0.000 OA
ATOM     37  H73 UNK     0      37.498  10.347 197.158  0.00  0.00    +0.000 HD
ENDBRANCH  32  36
BRANCH  34  38
ATOM     38  O9  UNK     0      37.644  14.402 198.482  0.00  0.00    +0.000 OA
ATOM     39  H74 UNK     0      38.561  14.144 198.283  0.00  0.00    +0.000 HD
ENDBRANCH  34  38
BRANCH  35  40
ATOM     40  O4  UNK     0      34.908  14.597 198.811  0.00  0.00    +0.000 OA
BRANCH  40  42
ATOM     41  O8  UNK     0      33.894  18.111 198.350  0.00  0.00    +0.000 OA
ATOM     42  C32 UNK     0      34.302  15.709 198.156  0.00  0.00    +0.000 C 
ATOM     43  C34 UNK     0      32.794  15.454 198.087  0.00  0.00    +0.000 C 
ATOM     44  C36 UNK     0      34.610  17.007 198.915  0.00  0.00    +0.000 C 
ATOM     45  C40 UNK     0      32.061  16.702 197.600  0.00  0.00    +0.000 C 
ATOM     46  C42 UNK     0      32.475  17.945 198.389  0.00  0.00    +0.000 C 
BRANCH  43  47
ATOM     47  O12 UNK     0      32.563  14.386 197.164  0.00  0.00    +0.000 OA
ATOM     48  H81 UNK     0      31.732  14.566 196.692  0.00  0.00    +0.000 HD
ENDBRANCH  43  47
BRANCH  45  49
ATOM     49  O15 UNK     0      30.657  16.495 197.708  0.00  0.00    +0.000 OA
ATOM     50  H84 UNK     0      30.513  15.553 197.902  0.00  0.00    +0.000 HD
ENDBRANCH  45  49
BRANCH  46  51
ATOM     51  O16 UNK     0      31.969  17.942 199.723  0.00  0.00    +0.000 OA
ATOM     52  H85 UNK     0      31.442  18.752 199.831  0.00  0.00    +0.000 HD
ENDBRANCH  46  51
BRANCH  44  53
ATOM     53  C43 UNK     0      36.094  17.363 198.862  0.00  0.00    +0.000 C 
BRANCH  53  54
ATOM     54  O17 UNK     0      36.630  16.876 197.646  0.00  0.00    +0.000 OA
ATOM     55  H86 UNK     0      35.881  16.595 197.094  0.00  0.00    +0.000 HD
ENDBRANCH  53  54
ENDBRANCH  44  53
ENDBRANCH  40  42
ENDBRANCH  35  40
BRANCH  33  56
ATOM     56  C39 UNK     0      34.942  12.287 195.195  0.00  0.00    +0.000 C 
BRANCH  56  57
ATOM     57  O14 UNK     0      35.567  11.322 194.369  0.00  0.00    +0.000 OA
ATOM     58  H83 UNK     0      34.885  10.677 194.116  0.00  0.00    +0.000 HD
ENDBRANCH  56  57
ENDBRANCH  33  56
ENDBRANCH   1  31
TORSDOF 22
REMARK  Name = Brazilin.pdb
REMARK  4 active torsions:
REMARK  status: ('A' for Active; 'I' for Inactive)
REMARK    1  A    between atoms: C3_3  and  O3_6
REMARK    2  A    between atoms: C4_4  and  O4_7
REMARK    3  A    between atoms: C10_10  and  O1_16
REMARK    4  A    between atoms: C19_19  and  O1_21
REMARK                            x       y       z     vdW  Elec       q    Type
REMARK                         _______ _______ _______ _____ _____    ______ ____
ROOT
ATOM      1 3C45 GLC     4      34.478  18.895 192.886  0.00  0.00    +0.000 A 
ATOM      2  C2  GLC     4      33.568  18.305 191.898  0.00  0.00    +0.000 A 
ATOM      3  C3  GLC     4      34.102  17.857 190.758  0.00  0.00    +0.000 A 
ATOM      4  C4  GLC     4      35.551  17.944 190.528  0.00  0.00    +0.000 A 
ATOM      5  C5  GLC     4      36.372  18.470 191.446  0.00  0.00    +0.000 A 
ATOM      6 3C45 GLC     4      35.786  18.975 192.673  0.00  0.00    +0.000 A 
ATOM      7  C9  GLC     4      36.442  19.697 193.846  0.00  0.00    +0.000 C 
ATOM      8  C10 GLC     4      35.483  19.290 194.920  0.00  0.00    +0.000 C 
ATOM      9  C11 GLC     4      34.130  19.546 194.207  0.00  0.00    +0.000 C 
ATOM     10  C12 GLC     4      35.754  20.016 196.233  0.00  0.00    +0.000 C 
ATOM     11  O13 GLC     4      37.090  19.683 196.621  0.00  0.00    +0.000 OA
ATOM     12  C14 GLC     4      38.102  19.465 195.741  0.00  0.00    +0.000 A 
ATOM     13  C15 GLC     4      37.854  19.452 194.287  0.00  0.00    +0.000 A 
ATOM     14  C17 GLC     4      38.872  19.253 193.454  0.00  0.00    +0.000 A 
ATOM     15  C18 GLC     4      40.207  19.034 193.994  0.00  0.00    +0.000 A 
ATOM     16  C19 GLC     4      40.412  19.043 195.310  0.00  0.00    +0.000 A 
ATOM     17  C20 GLC     4      39.323  19.267 196.217  0.00  0.00    +0.000 A 
ENDROOT
BRANCH   3  18
ATOM     18  O3  GLC     4      33.329  17.307 189.746  0.00  0.00    +0.000 OA
ATOM     19  H3  GLC     4      32.781  16.529 190.061  0.00  0.00    +0.000 HD
ENDBRANCH   3  18
BRANCH   4  20
ATOM     20  O4  GLC     4      36.036  17.478 189.330  0.00  0.00    +0.000 OA
ATOM     21  H4  GLC     4      35.367  17.683 188.588  0.00  0.00    +0.000 HD
ENDBRANCH   4  20
BRANCH   8  22
ATOM     22  O1  GLC     4      35.638  17.884 195.186  0.00  0.00    +0.000 OA
ATOM     23  H10 GLC     4      36.477  17.544 194.810  0.00  0.00    +0.000 HD
ENDBRANCH   8  22
BRANCH  16  24
ATOM     24  O1  GLC     4      41.655  18.841 195.808  0.00  0.00    +0.000 OA
ATOM     25  H14 GLC     4      41.566  18.327 196.603  0.00  0.00    +0.000 HD
ENDBRANCH  16  24
TORSDOF 4
ENDMDL
MODEL 5
REMARK VINA RESULT:    -2.813      2.493      6.880
REMARK INTER + INTRA:          -9.185
REMARK INTER:                  -5.762
REMARK INTRA:                  -3.423
REMARK UNBOUND:                -3.495
REMARK  Name = Acarbose.pdb
REMARK  23 active torsions:
REMARK  status: ('A' for Active; 'I' for Inactive)
REMARK    1  A    between atoms: O1_1  and  C22_22
REMARK    2  A    between atoms: O1_1  and  C25_25
REMARK    3  A    between atoms: O4_4  and  C30_30
REMARK    4  A    between atoms: O4_4  and  C32_32
REMARK    5  A    between atoms: O5_5  and  C21_21
REMARK    6  A    between atoms: O6_6  and  C23_23
REMARK    7  A    between atoms: O7_7  and  C26_26
REMARK    8  A    between atoms: O9_9  and  C29_29
REMARK    9  A    between atoms: O10_10  and  C31_31
REMARK   10  A    between atoms: O11_11  and  C33_33
REMARK   11  A    between atoms: O12_12  and  C34_34
REMARK   12  A    between atoms: O13_13  and  C38_38
REMARK   13  A    between atoms: O14_14  and  C39_39
REMARK   14  A    between atoms: O15_15  and  C40_40
REMARK   15  A    between atoms: O16_16  and  C42_42
REMARK   16  A    between atoms: O17_17  and  C43_43
REMARK   17  A    between atoms: O18_18  and  C44_44
REMARK   18  A    between atoms: N19_19  and  C20_20
REMARK   19  A    between atoms: N19_19  and  C28_28
REMARK   20  A    between atoms: C24_24  and  C35_35
REMARK   21  A    between atoms: C27_27  and  C39_39
REMARK   22  A    between atoms: C36_36  and  C43_43
REMARK   23  A    between atoms: C41_41  and  C44_44
REMARK                            x       y       z     vdW  Elec       q    Type
REMARK                         _______ _______ _______ _____ _____    ______ ____
ROOT
ATOM      1  O1  UNK     0      38.261  15.406 198.284  0.00  0.00    +0.000 OA
ENDROOT
BRANCH   1   7
ATOM      2  O2  UNK     0      38.831  15.986 196.088  0.00  0.00    +0.000 OA
ATOM      3  C20 UNK     0      37.837  17.910 194.902  0.00  0.00    +0.000 C 
ATOM      4  C21 UNK     0      37.243  18.392 196.239  0.00  0.00    +0.000 C 
ATOM      5  C23 UNK     0      37.134  17.267 197.272  0.00  0.00    +0.000 C 
ATOM      6  C24 UNK     0      39.063  16.991 195.092  0.00  0.00    +0.000 C 
ATOM      7  C25 UNK     0      38.445  16.484 197.368  0.00  0.00    +0.000 C 
ATOM      8  C35 UNK     0      40.358  17.754 195.379  0.00  0.00    +0.000 C 
BRANCH   4   9
ATOM      9  O5  UNK     0      38.061  19.426 196.786  0.00  0.00    +0.000 OA
ATOM     10  H70 UNK     0      38.974  19.089 196.821  0.00  0.00    +0.000 HD
ENDBRANCH   4   9
BRANCH   5  11
ATOM     11  O6  UNK     0      36.088  16.369 196.903  0.00  0.00    +0.000 OA
ATOM     12  H72 UNK     0      36.307  15.497 197.276  0.00  0.00    +0.000 HD
ENDBRANCH   5  11
BRANCH   3  13
ATOM     13  N19 UNK     0      36.811  17.169 194.154  0.00  0.00    +0.000 NA
ATOM     14  H55 UNK     0      36.408  16.442 194.742  0.00  0.00    +0.000 HD
BRANCH  13  15
ATOM     15  C28 UNK     0      35.767  18.079 193.673  0.00  0.00    +0.000 C 
ATOM     16  C31 UNK     0      34.367  17.572 194.082  0.00  0.00    +0.000 C 
ATOM     17  C33 UNK     0      33.260  18.356 193.365  0.00  0.00    +0.000 C 
ATOM     18  C37 UNK     0      35.895  18.330 192.193  0.00  0.00    +0.000 C 
ATOM     19  C38 UNK     0      33.415  18.319 191.832  0.00  0.00    +0.000 C 
ATOM     20  C41 UNK     0      34.847  18.426 191.355  0.00  0.00    +0.000 C 
BRANCH  16  21
ATOM     21  O10 UNK     0      34.216  16.179 193.809  0.00  0.00    +0.000 OA
ATOM     22  H77 UNK     0      33.750  15.781 194.563  0.00  0.00    +0.000 HD
ENDBRANCH  16  21
BRANCH  17  23
ATOM     23  O11 UNK     0      33.288  19.719 193.786  0.00  0.00    +0.000 OA
ATOM     24  H80 UNK     0      33.215  20.275 192.992  0.00  0.00    +0.000 HD
ENDBRANCH  17  23
BRANCH  19  25
ATOM     25  O13 UNK     0      32.881  17.096 191.327  0.00  0.00    +0.000 OA
ATOM     26  H82 UNK     0      33.455  16.374 191.638  0.00  0.00    +0.000 HD
ENDBRANCH  19  25
BRANCH  20  27
ATOM     27  C44 UNK     0      35.041  18.669 189.886  0.00  0.00    +0.000 C 
BRANCH  27  28
ATOM     28  O18 UNK     0      34.626  17.530 189.157  0.00  0.00    +0.000 OA
ATOM     29  H87 UNK     0      34.234  16.908 189.794  0.00  0.00    +0.000 HD
ENDBRANCH  27  28
ENDBRANCH  20  27
ENDBRANCH  13  15
ENDBRANCH   3  13
ENDBRANCH   1   7
BRANCH   1  31
ATOM     30  O3  UNK     0      41.106  14.526 198.121  0.00  0.00    +0.000 OA
ATOM     31  C22 UNK     0      39.204  15.470 199.360  0.00  0.00    +0.000 C 
ATOM     32  C26 UNK     0      39.086  14.166 200.157  0.00  0.00    +0.000 C 
ATOM     33  C27 UNK     0      40.603  15.703 198.765  0.00  0.00    +0.000 C 
ATOM     34  C29 UNK     0      39.751  12.993 199.432  0.00  0.00    +0.000 C 
ATOM     35  C30 UNK     0      41.154  13.364 198.946  0.00  0.00    +0.000 C 
BRANCH  32  36
ATOM     36  O7  UNK     0      39.703  14.316 201.432  0.00  0.00    +0.000 OA
ATOM     37  H73 UNK     0      40.386  15.002 201.349  0.00  0.00    +0.000 HD
ENDBRANCH  32  36
BRANCH  34  38
ATOM     38  O9  UNK     0      38.947  12.602 198.319  0.00  0.00    +0.000 OA
ATOM     39  H74 UNK     0      39.381  11.843 197.895  0.00  0.00    +0.000 HD
ENDBRANCH  34  38
BRANCH  35  40
ATOM     40  O4  UNK     0      41.686  12.259 198.220  0.00  0.00    +0.000 OA
BRANCH  40  42
ATOM     41  O8  UNK     0      42.674  12.135 194.670  0.00  0.00    +0.000 OA
ATOM     42  C32 UNK     0      42.339  12.689 197.026  0.00  0.00    +0.000 C 
ATOM     43  C34 UNK     0      43.850  12.621 197.262  0.00  0.00    +0.000 C 
ATOM     44  C36 UNK     0      41.922  11.805 195.843  0.00  0.00    +0.000 C 
ATOM     45  C40 UNK     0      44.607  12.853 195.956  0.00  0.00    +0.000 C 
ATOM     46  C42 UNK     0      44.083  11.959 194.832  0.00  0.00    +0.000 C 
BRANCH  43  47
ATOM     47  O12 UNK     0      44.203  13.645 198.196  0.00  0.00    +0.000 OA
ATOM     48  H81 UNK     0      45.162  13.599 198.350  0.00  0.00    +0.000 HD
ENDBRANCH  43  47
BRANCH  45  49
ATOM     49  O15 UNK     0      45.995  12.617 196.168  0.00  0.00    +0.000 OA
ATOM     50  H84 UNK     0      46.303  12.025 195.460  0.00  0.00    +0.000 HD
ENDBRANCH  45  49
BRANCH  46  51
ATOM     51  O16 UNK     0      44.438  10.589 195.010  0.00  0.00    +0.000 OA
ATOM     52  H85 UNK     0      43.635  10.117 195.286  0.00  0.00    +0.000 HD
ENDBRANCH  46  51
BRANCH  44  53
ATOM     53  C43 UNK     0      40.447  11.977 195.491  0.00  0.00    +0.000 C 
BRANCH  53  54
ATOM     54  O17 UNK     0      40.073  13.315 195.760  0.00  0.00    +0.000 OA
ATOM     55  H86 UNK     0      40.034  13.414 196.726  0.00  0.00    +0.000 HD
ENDBRANCH  53  54
ENDBRANCH  44  53
ENDBRANCH  40  42
ENDBRANCH  35  40
BRANCH  33  56
ATOM     56  C39 UNK     0      41.612  16.259 199.768  0.00  0.00    +0.000 C 
BRANCH  56  57
ATOM     57  O14 UNK     0      40.913  17.023 200.734  0.00  0.00    +0.000 OA
ATOM     58  H83 UNK     0      41.411  16.957 201.566  0.00  0.00    +0.000 HD
ENDBRANCH  56  57
ENDBRANCH  33  56
ENDBRANCH   1  31
TORSDOF 22
REMARK  Name = Brazilin.pdb
REMARK  4 active torsions:
REMARK  status: ('A' for Active; 'I' for Inactive)
REMARK    1  A    between atoms: C3_3  and  O3_6
REMARK    2  A    between atoms: C4_4  and  O4_7
REMARK    3  A    between atoms: C10_10  and  O1_16
REMARK    4  A    between atoms: C19_19  and  O1_21
REMARK                            x       y       z     vdW  Elec       q    Type
REMARK                         _______ _______ _______ _____ _____    ______ ____
ROOT
ATOM      1 3C45 GLC     4      35.392  12.869 192.681  0.00  0.00    +0.000 A 
ATOM      2  C2  GLC     4      34.720  12.353 193.879  0.00  0.00    +0.000 A 
ATOM      3  C3  GLC     4      35.305  12.577 195.059  0.00  0.00    +0.000 A 
ATOM      4  C4  GLC     4      36.565  13.329 195.136  0.00  0.00    +0.000 A 
ATOM      5  C5  GLC     4      37.159  13.809 194.036  0.00  0.00    +0.000 A 
ATOM      6 3C45 GLC     4      36.533  13.545 192.755  0.00  0.00    +0.000 A 
ATOM      7  C9  GLC     4      37.009  13.879 191.345  0.00  0.00    +0.000 C 
ATOM      8  C10 GLC     4      35.674  13.962 190.675  0.00  0.00    +0.000 C 
ATOM      9  C11 GLC     4      34.994  12.686 191.233  0.00  0.00    +0.000 C 
ATOM     10  C12 GLC     4      35.802  14.107 189.162  0.00  0.00    +0.000 C 
ATOM     11  O13 GLC     4      36.543  15.307 188.923  0.00  0.00    +0.000 OA
ATOM     12  C14 GLC     4      37.530  15.763 189.738  0.00  0.00    +0.000 A 
ATOM     13  C15 GLC     4      37.836  15.085 191.012  0.00  0.00    +0.000 A 
ATOM     14  C17 GLC     4      38.821  15.548 191.777  0.00  0.00    +0.000 A 
ATOM     15  C18 GLC     4      39.567  16.724 191.349  0.00  0.00    +0.000 A 
ATOM     16  C19 GLC     4      39.273  17.328 190.198  0.00  0.00    +0.000 A 
ATOM     17  C20 GLC     4      38.219  16.830 189.361  0.00  0.00    +0.000 A 
ENDROOT
BRANCH   3  18
ATOM     18  O3  GLC     4      34.769  12.110 196.250  0.00  0.00    +0.000 OA
ATOM     19  H3  GLC     4      35.016  12.683 197.034  0.00  0.00    +0.000 HD
ENDBRANCH   3  18
BRANCH   4  20
ATOM     20  O4  GLC     4      37.123  13.514 196.378  0.00  0.00    +0.000 OA
ATOM     21  H4  GLC     4      38.136  13.596 196.288  0.00  0.00    +0.000 HD
ENDBRANCH   4  20
BRANCH   8  22
ATOM     22  O1  GLC     4      34.980  15.133 191.144  0.00  0.00    +0.000 OA
ATOM     23  H10 GLC     4      34.795  15.753 190.408  0.00  0.00    +0.000 HD
ENDBRANCH   8  22
BRANCH  16  24
ATOM     24  O1  GLC     4      39.971  18.419 189.804  0.00  0.00    +0.000 OA
ATOM     25  H14 GLC     4      39.360  19.013 189.382  0.00  0.00    +0.000 HD
ENDBRANCH  16  24
TORSDOF 4
ENDMDL
MODEL 6
REMARK VINA RESULT:    -2.813      4.066      9.109
REMARK INTER + INTRA:          -9.185
REMARK INTER:                  -5.765
REMARK INTRA:                  -3.420
REMARK UNBOUND:                -3.495
REMARK  Name = Acarbose.pdb
REMARK  23 active torsions:
REMARK  status: ('A' for Active; 'I' for Inactive)
REMARK    1  A    between atoms: O1_1  and  C22_22
REMARK    2  A    between atoms: O1_1  and  C25_25
REMARK    3  A    between atoms: O4_4  and  C30_30
REMARK    4  A    between atoms: O4_4  and  C32_32
REMARK    5  A    between atoms: O5_5  and  C21_21
REMARK    6  A    between atoms: O6_6  and  C23_23
REMARK    7  A    between atoms: O7_7  and  C26_26
REMARK    8  A    between atoms: O9_9  and  C29_29
REMARK    9  A    between atoms: O10_10  and  C31_31
REMARK   10  A    between atoms: O11_11  and  C33_33
REMARK   11  A    between atoms: O12_12  and  C34_34
REMARK   12  A    between atoms: O13_13  and  C38_38
REMARK   13  A    between atoms: O14_14  and  C39_39
REMARK   14  A    between atoms: O15_15  and  C40_40
REMARK   15  A    between atoms: O16_16  and  C42_42
REMARK   16  A    between atoms: O17_17  and  C43_43
REMARK   17  A    between atoms: O18_18  and  C44_44
REMARK   18  A    between atoms: N19_19  and  C20_20
REMARK   19  A    between atoms: N19_19  and  C28_28
REMARK   20  A    between atoms: C24_24  and  C35_35
REMARK   21  A    between atoms: C27_27  and  C39_39
REMARK   22  A    between atoms: C36_36  and  C43_43
REMARK   23  A    between atoms: C41_41  and  C44_44
REMARK                            x       y       z     vdW  Elec       q    Type
REMARK                         _______ _______ _______ _____ _____    ______ ____
ROOT
ATOM      1  O1  UNK     0      37.856  13.688 196.256  0.00  0.00    +0.000 OA
ENDROOT
BRANCH   1   7
ATOM      2  O2  UNK     0      39.083  12.478 194.670  0.00  0.00    +0.000 OA
ATOM      3  C20 UNK     0      39.440  10.040 194.816  0.00  0.00    +0.000 C 
ATOM      4  C21 UNK     0      38.375   9.978 195.928  0.00  0.00    +0.000 C 
ATOM      5  C23 UNK     0      38.157  11.333 196.607  0.00  0.00    +0.000 C 
ATOM      6  C24 UNK     0      39.283  11.280 193.909  0.00  0.00    +0.000 C 
ATOM      7  C25 UNK     0      37.977  12.443 195.570  0.00  0.00    +0.000 C 
ATOM      8  C35 UNK     0      38.197  11.121 192.843  0.00  0.00    +0.000 C 
BRANCH   4   9
ATOM      9  O5  UNK     0      37.129   9.547 195.379  0.00  0.00    +0.000 OA
ATOM     10  H70 UNK     0      37.023   9.982 194.515  0.00  0.00    +0.000 HD
ENDBRANCH   4   9
BRANCH   5  11
ATOM     11  O6  UNK     0      39.281  11.650 197.428  0.00  0.00    +0.000 OA
ATOM     12  H72 UNK     0      39.386  10.928 198.071  0.00  0.00    +0.000 HD
ENDBRANCH   5  11
BRANCH   3  13
ATOM     13  N19 UNK     0      40.776  10.074 195.427  0.00  0.00    +0.000 NA
ATOM     14  H55 UNK     0      40.825  10.822 196.117  0.00  0.00    +0.000 HD
BRANCH  13  15
ATOM     15  C28 UNK     0      41.094   8.783 196.044  0.00  0.00    +0.000 C 
ATOM     16  C31 UNK     0      41.572   8.974 197.500  0.00  0.00    +0.000 C 
ATOM     17  C33 UNK     0      42.161   7.675 198.067  0.00  0.00    +0.000 C 
ATOM     18  C37 UNK     0      42.065   7.996 195.203  0.00  0.00    +0.000 C 
ATOM     19  C38 UNK     0      43.306   7.123 197.197  0.00  0.00    +0.000 C 
ATOM     20  C41 UNK     0      43.069   7.258 195.709  0.00  0.00    +0.000 C 
BRANCH  16  21
ATOM     21  O10 UNK     0      42.541  10.018 197.599  0.00  0.00    +0.000 OA
ATOM     22  H77 UNK     0      42.755  10.131 198.540  0.00  0.00    +0.000 HD
ENDBRANCH  16  21
BRANCH  17  23
ATOM     23  O11 UNK     0      41.139   6.682 198.149  0.00  0.00    +0.000 OA
ATOM     24  H80 UNK     0      40.625   6.720 197.325  0.00  0.00    +0.000 HD
ENDBRANCH  17  23
BRANCH  19  25
ATOM     25  O13 UNK     0      44.517   7.811 197.507  0.00  0.00    +0.000 OA
ATOM     26  H82 UNK     0      45.240   7.161 197.478  0.00  0.00    +0.000 HD
ENDBRANCH  19  25
BRANCH  20  27
ATOM     27  C44 UNK     0      44.010   6.502 194.815  0.00  0.00    +0.000 C 
BRANCH  27  28
ATOM     28  O18 UNK     0      45.307   7.056 194.913  0.00  0.00    +0.000 OA
ATOM     29  H87 UNK     0      45.690   6.748 195.752  0.00  0.00    +0.000 HD
ENDBRANCH  27  28
ENDBRANCH  20  27
ENDBRANCH  13  15
ENDBRANCH   3  13
ENDBRANCH   1   7
BRANCH   1  31
ATOM     30  O3  UNK     0      37.389  15.223 193.742  0.00  0.00    +0.000 OA
ATOM     31  C22 UNK     0      36.636  14.355 195.916  0.00  0.00    +0.000 C 
ATOM     32  C26 UNK     0      36.705  15.772 196.497  0.00  0.00    +0.000 C 
ATOM     33  C27 UNK     0      36.477  14.324 194.387  0.00  0.00    +0.000 C 
ATOM     34  C29 UNK     0      37.619  16.682 195.672  0.00  0.00    +0.000 C 
ATOM     35  C30 UNK     0      37.304  16.578 194.178  0.00  0.00    +0.000 C 
BRANCH  32  36
ATOM     36  O7  UNK     0      35.404  16.350 196.530  0.00  0.00    +0.000 OA
ATOM     37  H73 UNK     0      34.828  15.809 195.964  0.00  0.00    +0.000 HD
ENDBRANCH  32  36
BRANCH  34  38
ATOM     38  O9  UNK     0      38.982  16.322 195.900  0.00  0.00    +0.000 OA
ATOM     39  H74 UNK     0      39.385  16.135 195.035  0.00  0.00    +0.000 HD
ENDBRANCH  34  38
BRANCH  35  40
ATOM     40  O4  UNK     0      38.234  17.389 193.464  0.00  0.00    +0.000 OA
BRANCH  40  42
ATOM     41  O8  UNK     0      40.708  16.333 190.943  0.00  0.00    +0.000 OA
ATOM     42  C32 UNK     0      38.710  16.725 192.295  0.00  0.00    +0.000 C 
ATOM     43  C34 UNK     0      38.004  17.336 191.082  0.00  0.00    +0.000 C 
ATOM     44  C36 UNK     0      40.233  16.873 192.181  0.00  0.00    +0.000 C 
ATOM     45  C40 UNK     0      38.629  16.828 189.785  0.00  0.00    +0.000 C 
ATOM     46  C42 UNK     0      40.151  16.976 189.795  0.00  0.00    +0.000 C 
BRANCH  43  47
ATOM     47  O12 UNK     0      36.629  16.947 191.123  0.00  0.00    +0.000 OA
ATOM     48  H81 UNK     0      36.586  16.002 191.349  0.00  0.00    +0.000 HD
ENDBRANCH  43  47
BRANCH  45  49
ATOM     49  O15 UNK     0      38.071  17.537 188.684  0.00  0.00    +0.000 OA
ATOM     50  H84 UNK     0      38.179  16.981 187.892  0.00  0.00    +0.000 HD
ENDBRANCH  45  49
BRANCH  46  51
ATOM     51  O16 UNK     0      40.570  18.335 189.681  0.00  0.00    +0.000 OA
ATOM     52  H85 UNK     0      39.792  18.854 189.417  0.00  0.00    +0.000 HD
ENDBRANCH  46  51
BRANCH  44  53
ATOM     53  C43 UNK     0      40.965  16.136 193.300  0.00  0.00    +0.000 C 
BRANCH  53  54
ATOM     54  O17 UNK     0      40.222  14.979 193.638  0.00  0.00    +0.000 OA
ATOM     55  H86 UNK     0      40.242  14.899 194.607  0.00  0.00    +0.000 HD
ENDBRANCH  53  54
ENDBRANCH  44  53
ENDBRANCH  40  42
ENDBRANCH  35  40
BRANCH  33  56
ATOM     56  C39 UNK     0      35.043  14.556 193.913  0.00  0.00    +0.000 C 
BRANCH  56  57
ATOM     57  O14 UNK     0      34.157  14.086 194.912  0.00  0.00    +0.000 OA
ATOM     58  H83 UNK     0      34.142  14.753 195.619  0.00  0.00    +0.000 HD
ENDBRANCH  56  57
ENDBRANCH  33  56
ENDBRANCH   1  31
TORSDOF 22
REMARK  Name = Brazilin.pdb
REMARK  4 active torsions:
REMARK  status: ('A' for Active; 'I' for Inactive)
REMARK    1  A    between atoms: C3_3  and  O3_6
REMARK    2  A    between atoms: C4_4  and  O4_7
REMARK    3  A    between atoms: C10_10  and  O1_16
REMARK    4  A    between atoms: C19_19  and  O1_21
REMARK                            x       y       z     vdW  Elec       q    Type
REMARK                         _______ _______ _______ _____ _____    ______ ____
ROOT
ATOM      1 3C45 GLC     4      44.650  12.734 196.290  0.00  0.00    +0.000 A 
ATOM      2  C2  GLC     4      44.230  13.463 197.492  0.00  0.00    +0.000 A 
ATOM      3  C3  GLC     4      42.974  13.917 197.530  0.00  0.00    +0.000 A 
ATOM      4  C4  GLC     4      42.057  13.670 196.409  0.00  0.00    +0.000 A 
ATOM      5  C5  GLC     4      42.449  12.988 195.324  0.00  0.00    +0.000 A 
ATOM      6 3C45 GLC     4      43.819  12.516 195.277  0.00  0.00    +0.000 A 
ATOM      7  C9  GLC     4      44.570  11.801 194.157  0.00  0.00    +0.000 C 
ATOM      8  C10 GLC     4      45.566  11.064 194.995  0.00  0.00    +0.000 C 
ATOM      9  C11 GLC     4      46.023  12.192 195.956  0.00  0.00    +0.000 C 
ATOM     10  C12 GLC     4      46.625  10.369 194.146  0.00  0.00    +0.000 C 
ATOM     11  O13 GLC     4      45.933   9.452 193.293  0.00  0.00    +0.000 OA
ATOM     12  C14 GLC     4      44.692   9.678 192.787  0.00  0.00    +0.000 A 
ATOM     13  C15 GLC     4      43.915  10.868 193.183  0.00  0.00    +0.000 A 
ATOM     14  C17 GLC     4      42.711  11.067 192.654  0.00  0.00    +0.000 A 
ATOM     15  C18 GLC     4      42.177  10.097 191.707  0.00  0.00    +0.000 A 
ATOM     16  C19 GLC     4      42.889   9.025 191.365  0.00  0.00    +0.000 A 
ATOM     17  C20 GLC     4      44.193   8.807 191.922  0.00  0.00    +0.000 A 
ENDROOT
BRANCH   3  18
ATOM     18  O3  GLC     4      42.483  14.641 198.606  0.00  0.00    +0.000 OA
ATOM     19  H3  GLC     4      41.908  15.411 198.321  0.00  0.00    +0.000 HD
ENDBRANCH   3  18
BRANCH   4  20
ATOM     20  O4  GLC     4      40.782  14.175 196.503  0.00  0.00    +0.000 OA
ATOM     21  H4  GLC     4      40.112  13.406 196.534  0.00  0.00    +0.000 HD
ENDBRANCH   4  20
BRANCH   8  22
ATOM     22  O1  GLC     4      44.890  10.033 195.739  0.00  0.00    +0.000 OA
ATOM     23  H10 GLC     4      45.530   9.461 196.213  0.00  0.00    +0.000 HD
ENDBRANCH   8  22
BRANCH  16  24
ATOM     24  O1  GLC     4      42.389   8.127 190.483  0.00  0.00    +0.000 OA
ATOM     25  H14 GLC     4      42.587   7.258 190.814  0.00  0.00    +0.000 HD
ENDBRANCH  16  24
TORSDOF 4
ENDMDL
MODEL 7
REMARK VINA RESULT:    -2.811      3.598      8.657
REMARK INTER + INTRA:          -9.182
REMARK INTER:                  -5.743
REMARK INTRA:                  -3.439
REMARK UNBOUND:                -3.495
REMARK  Name = Acarbose.pdb
REMARK  23 active torsions:
REMARK  status: ('A' for Active; 'I' for Inactive)
REMARK    1  A    between atoms: O1_1  and  C22_22
REMARK    2  A    between atoms: O1_1  and  C25_25
REMARK    3  A    between atoms: O4_4  and  C30_30
REMARK    4  A    between atoms: O4_4  and  C32_32
REMARK    5  A    between atoms: O5_5  and  C21_21
REMARK    6  A    between atoms: O6_6  and  C23_23
REMARK    7  A    between atoms: O7_7  and  C26_26
REMARK    8  A    between atoms: O9_9  and  C29_29
REMARK    9  A    between atoms: O10_10  and  C31_31
REMARK   10  A    between atoms: O11_11  and  C33_33
REMARK   11  A    between atoms: O12_12  and  C34_34
REMARK   12  A    between atoms: O13_13  and  C38_38
REMARK   13  A    between atoms: O14_14  and  C39_39
REMARK   14  A    between atoms: O15_15  and  C40_40
REMARK   15  A    between atoms: O16_16  and  C42_42
REMARK   16  A    between atoms: O17_17  and  C43_43
REMARK   17  A    between atoms: O18_18  and  C44_44
REMARK   18  A    between atoms: N19_19  and  C20_20
REMARK   19  A    between atoms: N19_19  and  C28_28
REMARK   20  A    between atoms: C24_24  and  C35_35
REMARK   21  A    between atoms: C27_27  and  C39_39
REMARK   22  A    between atoms: C36_36  and  C43_43
REMARK   23  A    between atoms: C41_41  and  C44_44
REMARK                            x       y       z     vdW  Elec       q    Type
REMARK                         _______ _______ _______ _____ _____    ______ ____
ROOT
ATOM      1  O1  UNK     0      37.938  13.077 198.294  0.00  0.00    +0.000 OA
ENDROOT
BRANCH   1   7
ATOM      2  O2  UNK     0      39.936  14.034 197.536  0.00  0.00    +0.000 OA
ATOM      3  C20 UNK     0      40.011  15.852 195.866  0.00  0.00    +0.000 C 
ATOM      4  C21 UNK     0      38.489  16.030 196.033  0.00  0.00    +0.000 C 
ATOM      5  C23 UNK     0      37.813  14.785 196.613  0.00  0.00    +0.000 C 
ATOM      6  C24 UNK     0      40.669  15.184 197.093  0.00  0.00    +0.000 C 
ATOM      7  C25 UNK     0      38.565  14.277 197.845  0.00  0.00    +0.000 C 
ATOM      8  C35 UNK     0      40.922  16.151 198.252  0.00  0.00    +0.000 C 
BRANCH   4   9
ATOM      9  O5  UNK     0      38.225  17.130 196.904  0.00  0.00    +0.000 OA
ATOM     10  H70 UNK     0      37.442  16.902 197.435  0.00  0.00    +0.000 HD
ENDBRANCH   4   9
BRANCH   5  11
ATOM     11  O6  UNK     0      37.784  13.748 195.633  0.00  0.00    +0.000 OA
ATOM     12  H72 UNK     0      38.542  13.162 195.805  0.00  0.00    +0.000 HD
ENDBRANCH   5  11
BRANCH   3  13
ATOM     13  N19 UNK     0      40.274  15.021 194.684  0.00  0.00    +0.000 NA
ATOM     14  H55 UNK     0      39.745  14.153 194.743  0.00  0.00    +0.000 HD
BRANCH  13  15
ATOM     15  C28 UNK     0      39.935  15.748 193.457  0.00  0.00    +0.000 C 
ATOM     16  C31 UNK     0      39.006  14.904 192.558  0.00  0.00    +0.000 C 
ATOM     17  C33 UNK     0      38.861  15.529 191.164  0.00  0.00    +0.000 C 
ATOM     18  C37 UNK     0      41.172  16.226 192.742  0.00  0.00    +0.000 C 
ATOM     19  C38 UNK     0      40.222  15.742 190.475  0.00  0.00    +0.000 C 
ATOM     20  C41 UNK     0      41.317  16.216 191.405  0.00  0.00    +0.000 C 
BRANCH  16  21
ATOM     21  O10 UNK     0      39.479  13.563 192.430  0.00  0.00    +0.000 OA
ATOM     22  H77 UNK     0      40.223  13.574 191.805  0.00  0.00    +0.000 HD
ENDBRANCH  16  21
BRANCH  17  23
ATOM     23  O11 UNK     0      38.209  16.794 191.272  0.00  0.00    +0.000 OA
ATOM     24  H80 UNK     0      38.898  17.477 191.330  0.00  0.00    +0.000 HD
ENDBRANCH  17  23
BRANCH  19  25
ATOM     25  O13 UNK     0      40.656  14.518 189.883  0.00  0.00    +0.000 OA
ATOM     26  H82 UNK     0      41.352  14.734 189.239  0.00  0.00    +0.000 HD
ENDBRANCH  19  25
BRANCH  20  27
ATOM     27  C44 UNK     0      42.580  16.699 190.752  0.00  0.00    +0.000 C 
BRANCH  27  28
ATOM     28  O18 UNK     0      43.235  15.615 190.123  0.00  0.00    +0.000 OA
ATOM     29  H87 UNK     0      43.735  15.142 190.811  0.00  0.00    +0.000 HD
ENDBRANCH  27  28
ENDBRANCH  20  27
ENDBRANCH  13  15
ENDBRANCH   3  13
ENDBRANCH   1   7
BRANCH   1  31
ATOM     30  O3  UNK     0      39.719  12.899 200.679  0.00  0.00    +0.000 OA
ATOM     31  C22 UNK     0      37.504  13.193 199.653  0.00  0.00    +0.000 C 
ATOM     32  C26 UNK     0      37.106  11.792 200.133  0.00  0.00    +0.000 C 
ATOM     33  C27 UNK     0      38.642  13.823 200.473  0.00  0.00    +0.000 C 
ATOM     34  C29 UNK     0      38.330  10.922 200.430  0.00  0.00    +0.000 C 
ATOM     35  C30 UNK     0      39.345  11.670 201.296  0.00  0.00    +0.000 C 
BRANCH  32  36
ATOM     36  O7  UNK     0      36.321  11.887 201.318  0.00  0.00    +0.000 OA
ATOM     37  H73 UNK     0      36.931  11.870 202.076  0.00  0.00    +0.000 HD
ENDBRANCH  32  36
BRANCH  34  38
ATOM     38  O9  UNK     0      38.944  10.529 199.202  0.00  0.00    +0.000 OA
ATOM     39  H74 UNK     0      39.174  11.339 198.717  0.00  0.00    +0.000 HD
ENDBRANCH  34  38
BRANCH  35  40
ATOM     40  O4  UNK     0      40.488  10.835 201.473  0.00  0.00    +0.000 OA
BRANCH  40  42
ATOM     41  O8  UNK     0      43.967  11.450 200.422  0.00  0.00    +0.000 OA
ATOM     42  C32 UNK     0      41.698  11.573 201.322  0.00  0.00    +0.000 C 
ATOM     43  C34 UNK     0      42.262  11.850 202.718  0.00  0.00    +0.000 C 
ATOM     44  C36 UNK     0      42.699  10.786 200.467  0.00  0.00    +0.000 C 
ATOM     45  C40 UNK     0      43.667  12.440 202.622  0.00  0.00    +0.000 C 
ATOM     46  C42 UNK     0      44.569  11.608 201.709  0.00  0.00    +0.000 C 
BRANCH  43  47
ATOM     47  O12 UNK     0      41.403  12.790 203.369  0.00  0.00    +0.000 OA
ATOM     48  H81 UNK     0      41.607  12.782 204.319  0.00  0.00    +0.000 HD
ENDBRANCH  43  47
BRANCH  45  49
ATOM     49  O15 UNK     0      44.232  12.528 203.926  0.00  0.00    +0.000 OA
ATOM     50  H84 UNK     0      45.128  12.153 203.883  0.00  0.00    +0.000 HD
ENDBRANCH  45  49
BRANCH  46  51
ATOM     51  O16 UNK     0      44.934  10.358 202.291  0.00  0.00    +0.000 OA
ATOM     52  H85 UNK     0      44.733   9.667 201.637  0.00  0.00    +0.000 HD
ENDBRANCH  46  51
BRANCH  44  53
ATOM     53  C43 UNK     0      42.225  10.633 199.024  0.00  0.00    +0.000 C 
BRANCH  53  54
ATOM     54  O17 UNK     0      41.478  11.783 198.672  0.00  0.00    +0.000 OA
ATOM     55  H86 UNK     0      40.538  11.548 198.744  0.00  0.00    +0.000 HD
ENDBRANCH  53  54
ENDBRANCH  44  53
ENDBRANCH  40  42
ENDBRANCH  35  40
BRANCH  33  56
ATOM     56  C39 UNK     0      38.181  14.438 201.793  0.00  0.00    +0.000 C 
BRANCH  56  57
ATOM     57  O14 UNK     0      36.837  14.857 201.649  0.00  0.00    +0.000 OA
ATOM     58  H83 UNK     0      36.743  15.692 202.138  0.00  0.00    +0.000 HD
ENDBRANCH  56  57
ENDBRANCH  33  56
ENDBRANCH   1  31
TORSDOF 22
REMARK  Name = Brazilin.pdb
REMARK  4 active torsions:
REMARK  status: ('A' for Active; 'I' for Inactive)
REMARK    1  A    between atoms: C3_3  and  O3_6
REMARK    2  A    between atoms: C4_4  and  O4_7
REMARK    3  A    between atoms: C10_10  and  O1_16
REMARK    4  A    between atoms: C19_19  and  O1_21
REMARK                            x       y       z     vdW  Elec       q    Type
REMARK                         _______ _______ _______ _____ _____    ______ ____
ROOT
ATOM      1 3C45 GLC     4      41.753  10.763 193.113  0.00  0.00    +0.000 A 
ATOM      2  C2  GLC     4      40.530   9.964 193.248  0.00  0.00    +0.000 A 
ATOM      3  C3  GLC     4      39.794  10.144 194.349  0.00  0.00    +0.000 A 
ATOM      4  C4  GLC     4      40.201  11.122 195.367  0.00  0.00    +0.000 A 
ATOM      5  C5  GLC     4      41.312  11.857 195.223  0.00  0.00    +0.000 A 
ATOM      6 3C45 GLC     4      42.119  11.643 194.038  0.00  0.00    +0.000 A 
ATOM      7  C9  GLC     4      43.461  12.254 193.645  0.00  0.00    +0.000 C 
ATOM      8  C10 GLC     4      43.324  12.149 192.158  0.00  0.00    +0.000 C 
ATOM      9  C11 GLC     4      42.798  10.697 192.021  0.00  0.00    +0.000 C 
ATOM     10  C12 GLC     4      44.617  12.518 191.438  0.00  0.00    +0.000 C 
ATOM     11  O13 GLC     4      44.923  13.866 191.804  0.00  0.00    +0.000 OA
ATOM     12  C14 GLC     4      44.644  14.402 193.022  0.00  0.00    +0.000 A 
ATOM     13  C15 GLC     4      43.889  13.638 194.032  0.00  0.00    +0.000 A 
ATOM     14  C17 GLC     4      43.649  14.187 195.220  0.00  0.00    +0.000 A 
ATOM     15  C18 GLC     4      44.121  15.538 195.492  0.00  0.00    +0.000 A 
ATOM     16  C19 GLC     4      44.796  16.217 194.566  0.00  0.00    +0.000 A 
ATOM     17  C20 GLC     4      45.069  15.629 193.286  0.00  0.00    +0.000 A 
ENDROOT
BRANCH   3  18
ATOM     18  O3  GLC     4      38.635   9.421 194.588  0.00  0.00    +0.000 OA
ATOM     19  H3  GLC     4      38.580   9.082 195.530  0.00  0.00    +0.000 HD
ENDBRANCH   3  18
BRANCH   4  20
ATOM     20  O4  GLC     4      39.409  11.250 196.482  0.00  0.00    +0.000 OA
ATOM     21  H4  GLC     4      39.070  12.209 196.552  0.00  0.00    +0.000 HD
ENDBRANCH   4  20
BRANCH   8  22
ATOM     22  O1  GLC     4      42.320  13.078 191.708  0.00  0.00    +0.000 OA
ATOM     23  H10 GLC     4      42.418  13.946 192.153  0.00  0.00    +0.000 HD
ENDBRANCH   8  22
BRANCH  16  24
ATOM     24  O1  GLC     4      45.235  17.471 194.824  0.00  0.00    +0.000 OA
ATOM     25  H14 GLC     4      45.435  17.520 195.753  0.00  0.00    +0.000 HD
ENDBRANCH  16  24
TORSDOF 4
ENDMDL
MODEL 8
REMARK VINA RESULT:    -2.810      4.001      8.316
REMARK INTER + INTRA:          -9.180
REMARK INTER:                  -5.736
REMARK INTRA:                  -3.444
REMARK UNBOUND:                -3.495
REMARK  Name = Acarbose.pdb
REMARK  23 active torsions:
REMARK  status: ('A' for Active; 'I' for Inactive)
REMARK    1  A    between atoms: O1_1  and  C22_22
REMARK    2  A    between atoms: O1_1  and  C25_25
REMARK    3  A    between atoms: O4_4  and  C30_30
REMARK    4  A    between atoms: O4_4  and  C32_32
REMARK    5  A    between atoms: O5_5  and  C21_21
REMARK    6  A    between atoms: O6_6  and  C23_23
REMARK    7  A    between atoms: O7_7  and  C26_26
REMARK    8  A    between atoms: O9_9  and  C29_29
REMARK    9  A    between atoms: O10_10  and  C31_31
REMARK   10  A    between atoms: O11_11  and  C33_33
REMARK   11  A    between atoms: O12_12  and  C34_34
REMARK   12  A    between atoms: O13_13  and  C38_38
REMARK   13  A    between atoms: O14_14  and  C39_39
REMARK   14  A    between atoms: O15_15  and  C40_40
REMARK   15  A    between atoms: O16_16  and  C42_42
REMARK   16  A    between atoms: O17_17  and  C43_43
REMARK   17  A    between atoms: O18_18  and  C44_44
REMARK   18  A    between atoms: N19_19  and  C20_20
REMARK   19  A    between atoms: N19_19  and  C28_28
REMARK   20  A    between atoms: C24_24  and  C35_35
REMARK   21  A    between atoms: C27_27  and  C39_39
REMARK   22  A    between atoms: C36_36  and  C43_43
REMARK   23  A    between atoms: C41_41  and  C44_44
REMARK                            x       y       z     vdW  Elec       q    Type
REMARK                         _______ _______ _______ _____ _____    ______ ____
ROOT
ATOM      1  O1  UNK     0      40.536  12.210 199.161  0.00  0.00    +0.000 OA
ENDROOT
BRANCH   1   7
ATOM      2  O2  UNK     0      39.575  14.342 199.281  0.00  0.00    +0.000 OA
ATOM      3  C20 UNK     0      38.080  15.044 201.116  0.00  0.00    +0.000 C 
ATOM      4  C21 UNK     0      38.487  13.778 201.896  0.00  0.00    +0.000 C 
ATOM      5  C23 UNK     0      39.050  12.684 200.984  0.00  0.00    +0.000 C 
ATOM      6  C24 UNK     0      39.130  15.458 200.063  0.00  0.00    +0.000 C 
ATOM      7  C25 UNK     0      40.106  13.252 200.034  0.00  0.00    +0.000 C 
ATOM      8  C35 UNK     0      40.319  16.219 200.654  0.00  0.00    +0.000 C 
BRANCH   4   9
ATOM      9  O5  UNK     0      39.481  14.108 202.865  0.00  0.00    +0.000 OA
ATOM     10  H70 UNK     0      40.240  13.518 202.720  0.00  0.00    +0.000 HD
ENDBRANCH   4   9
BRANCH   5  11
ATOM     11  O6  UNK     0      37.997  12.109 200.210  0.00  0.00    +0.000 OA
ATOM     12  H72 UNK     0      37.764  12.748 199.515  0.00  0.00    +0.000 HD
ENDBRANCH   5  11
BRANCH   3  13
ATOM     13  N19 UNK     0      36.802  14.801 200.431  0.00  0.00    +0.000 NA
ATOM     14  H55 UNK     0      36.865  13.956 199.866  0.00  0.00    +0.000 HD
BRANCH  13  15
ATOM     15  C28 UNK     0      35.710  14.691 201.403  0.00  0.00    +0.000 C 
ATOM     16  C31 UNK     0      34.887  13.407 201.159  0.00  0.00    +0.000 C 
ATOM     17  C33 UNK     0      33.592  13.412 201.983  0.00  0.00    +0.000 C 
ATOM     18  C37 UNK     0      34.866  15.938 201.424  0.00  0.00    +0.000 C 
ATOM     19  C38 UNK     0      32.730  14.660 201.710  0.00  0.00    +0.000 C 
ATOM     20  C41 UNK     0      33.526  15.936 201.548  0.00  0.00    +0.000 C 
BRANCH  16  21
ATOM     21  O10 UNK     0      34.570  13.245 199.777  0.00  0.00    +0.000 OA
ATOM     22  H77 UNK     0      34.260  12.333 199.652  0.00  0.00    +0.000 HD
ENDBRANCH  16  21
BRANCH  17  23
ATOM     23  O11 UNK     0      33.909  13.380 203.373  0.00  0.00    +0.000 OA
ATOM     24  H80 UNK     0      33.071  13.359 203.866  0.00  0.00    +0.000 HD
ENDBRANCH  17  23
BRANCH  19  25
ATOM     25  O13 UNK     0      31.973  14.467 200.516  0.00  0.00    +0.000 OA
ATOM     26  H82 UNK     0      31.036  14.607 200.736  0.00  0.00    +0.000 HD
ENDBRANCH  19  25
BRANCH  20  27
ATOM     27  C44 UNK     0      32.739  17.215 201.553  0.00  0.00    +0.000 C 
BRANCH  27  28
ATOM     28  O18 UNK     0      31.923  17.276 200.400  0.00  0.00    +0.000 OA
ATOM     29  H87 UNK     0      31.773  18.216 200.203  0.00  0.00    +0.000 HD
ENDBRANCH  27  28
ENDBRANCH  20  27
ENDBRANCH  13  15
ENDBRANCH   3  13
ENDBRANCH   1   7
BRANCH   1  31
ATOM     30  O3  UNK     0      42.605  13.997 197.971  0.00  0.00    +0.000 OA
ATOM     31  C22 UNK     0      41.950  12.004 199.252  0.00  0.00    +0.000 C 
ATOM     32  C26 UNK     0      42.367  11.118 198.071  0.00  0.00    +0.000 C 
ATOM     33  C27 UNK     0      42.640  13.378 199.263  0.00  0.00    +0.000 C 
ATOM     34  C29 UNK     0      42.404  11.902 196.757  0.00  0.00    +0.000 C 
ATOM     35  C30 UNK     0      43.167  13.218 196.917  0.00  0.00    +0.000 C 
BRANCH  32  36
ATOM     36  O7  UNK     0      43.659  10.569 198.306  0.00  0.00    +0.000 OA
ATOM     37  H73 UNK     0      43.540   9.641 198.569  0.00  0.00    +0.000 HD
ENDBRANCH  32  36
BRANCH  34  38
ATOM     38  O9  UNK     0      41.070  12.171 196.325  0.00  0.00    +0.000 OA
ATOM     39  H74 UNK     0      40.784  12.997 196.752  0.00  0.00    +0.000 HD
ENDBRANCH  34  38
BRANCH  35  40
ATOM     40  O4  UNK     0      43.102  13.930 195.683  0.00  0.00    +0.000 OA
BRANCH  40  42
ATOM     41  O8  UNK     0      41.613  17.235 195.012  0.00  0.00    +0.000 OA
ATOM     42  C32 UNK     0      42.839  15.316 195.897  0.00  0.00    +0.000 C 
ATOM     43  C34 UNK     0      44.157  16.077 195.736  0.00  0.00    +0.000 C 
ATOM     44  C36 UNK     0      41.784  15.817 194.902  0.00  0.00    +0.000 C 
ATOM     45  C40 UNK     0      43.908  17.585 195.731  0.00  0.00    +0.000 C 
ATOM     46  C42 UNK     0      42.807  17.972 194.743  0.00  0.00    +0.000 C 
BRANCH  43  47
ATOM     47  O12 UNK     0      45.002  15.747 196.841  0.00  0.00    +0.000 OA
ATOM     48  H81 UNK     0      44.729  14.880 197.185  0.00  0.00    +0.000 HD
ENDBRANCH  43  47
BRANCH  45  49
ATOM     49  O15 UNK     0      45.118  18.261 195.411  0.00  0.00    +0.000 OA
ATOM     50  H84 UNK     0      45.728  17.606 195.029  0.00  0.00    +0.000 HD
ENDBRANCH  45  49
BRANCH  46  51
ATOM     51  O16 UNK     0      43.222  17.850 193.384  0.00  0.00    +0.000 OA
ATOM     52  H85 UNK     0      42.872  18.620 192.906  0.00  0.00    +0.000 HD
ENDBRANCH  46  51
BRANCH  44  53
ATOM     53  C43 UNK     0      40.417  15.182 195.147  0.00  0.00    +0.000 C 
BRANCH  53  54
ATOM     54  O17 UNK     0      40.281  14.927 196.533  0.00  0.00    +0.000 OA
ATOM     55  H86 UNK     0      39.872  14.050 196.624  0.00  0.00    +0.000 HD
ENDBRANCH  53  54
ENDBRANCH  44  53
ENDBRANCH  40  42
ENDBRANCH  35  40
BRANCH  33  56
ATOM     56  C39 UNK     0      44.060  13.349 199.824  0.00  0.00    +0.000 C 
BRANCH  56  57
ATOM     57  O14 UNK     0      44.152  12.293 200.763  0.00  0.00    +0.000 OA
ATOM     58  H83 UNK     0      44.302  11.475 200.261  0.00  0.00    +0.000 HD
ENDBRANCH  56  57
ENDBRANCH  33  56
ENDBRANCH   1  31
TORSDOF 22
REMARK  Name = Brazilin.pdb
REMARK  4 active torsions:
REMARK  status: ('A' for Active; 'I' for Inactive)
REMARK    1  A    between atoms: C3_3  and  O3_6
REMARK    2  A    between atoms: C4_4  and  O4_7
REMARK    3  A    between atoms: C10_10  and  O1_16
REMARK    4  A    between atoms: C19_19  and  O1_21
REMARK                            x       y       z     vdW  Elec       q    Type
REMARK                         _______ _______ _______ _____ _____    ______ ____
ROOT
ATOM      1 3C45 GLC     4      34.668  14.170 196.217  0.00  0.00    +0.000 A 
ATOM      2  C2  GLC     4      34.912  12.743 195.981  0.00  0.00    +0.000 A 
ATOM      3  C3  GLC     4      36.119  12.264 196.296  0.00  0.00    +0.000 A 
ATOM      4  C4  GLC     4      37.144  13.144 196.872  0.00  0.00    +0.000 A 
ATOM      5  C5  GLC     4      36.902  14.442 197.097  0.00  0.00    +0.000 A 
ATOM      6 3C45 GLC     4      35.599  14.963 196.735  0.00  0.00    +0.000 A 
ATOM      7  C9  GLC     4      35.067  16.393 196.788  0.00  0.00    +0.000 C 
ATOM      8  C10 GLC     4      33.613  16.081 196.951  0.00  0.00    +0.000 C 
ATOM      9  C11 GLC     4      33.434  14.978 195.877  0.00  0.00    +0.000 C 
ATOM     10  C12 GLC     4      32.746  17.332 196.851  0.00  0.00    +0.000 C 
ATOM     11  O13 GLC     4      33.175  18.216 197.891  0.00  0.00    +0.000 OA
ATOM     12  C14 GLC     4      34.459  18.309 198.323  0.00  0.00    +0.000 A 
ATOM     13  C15 GLC     4      35.502  17.403 197.807  0.00  0.00    +0.000 A 
ATOM     14  C17 GLC     4      36.753  17.535 198.239  0.00  0.00    +0.000 A 
ATOM     15  C18 GLC     4      37.065  18.560 199.226  0.00  0.00    +0.000 A 
ATOM     16  C19 GLC     4      36.110  19.366 199.687  0.00  0.00    +0.000 A 
ATOM     17  C20 GLC     4      34.760  19.239 199.219  0.00  0.00    +0.000 A 
ENDROOT
BRANCH   3  18
ATOM     18  O3  GLC     4      36.462  10.936 196.088  0.00  0.00    +0.000 OA
ATOM     19  H3  GLC     4      35.679  10.375 195.811  0.00  0.00    +0.000 HD
ENDBRANCH   3  18
BRANCH   4  20
ATOM     20  O4  GLC     4      38.369  12.592 197.161  0.00  0.00    +0.000 OA
ATOM     21  H4  GLC     4      38.399  12.324 198.144  0.00  0.00    +0.000 HD
ENDBRANCH   4  20
BRANCH   8  22
ATOM     22  O1  GLC     4      33.391  15.528 198.262  0.00  0.00    +0.000 OA
ATOM     23  H10 GLC     4      33.828  16.071 198.952  0.00  0.00    +0.000 HD
ENDBRANCH   8  22
BRANCH  16  24
ATOM     24  O1  GLC     4      36.405  20.319 200.602  0.00  0.00    +0.000 OA
ATOM     25  H14 GLC     4      36.294  19.933 201.464  0.00  0.00    +0.000 HD
ENDBRANCH  16  24
TORSDOF 4
ENDMDL
MODEL 9
REMARK VINA RESULT:    -2.809      3.050      7.108
REMARK INTER + INTRA:          -9.178
REMARK INTER:                  -5.749
REMARK INTRA:                  -3.430
REMARK UNBOUND:                -3.495
REMARK  Name = Acarbose.pdb
REMARK  23 active torsions:
REMARK  status: ('A' for Active; 'I' for Inactive)
REMARK    1  A    between atoms: O1_1  and  C22_22
REMARK    2  A    between atoms: O1_1  and  C25_25
REMARK    3  A    between atoms: O4_4  and  C30_30
REMARK    4  A    between atoms: O4_4  and  C32_32
REMARK    5  A    between atoms: O5_5  and  C21_21
REMARK    6  A    between atoms: O6_6  and  C23_23
REMARK    7  A    between atoms: O7_7  and  C26_26
REMARK    8  A    between atoms: O9_9  and  C29_29
REMARK    9  A    between atoms: O10_10  and  C31_31
REMARK   10  A    between atoms: O11_11  and  C33_33
REMARK   11  A    between atoms: O12_12  and  C34_34
REMARK   12  A    between atoms: O13_13  and  C38_38
REMARK   13  A    between atoms: O14_14  and  C39_39
REMARK   14  A    between atoms: O15_15  and  C40_40
REMARK   15  A    between atoms: O16_16  and  C42_42
REMARK   16  A    between atoms: O17_17  and  C43_43
REMARK   17  A    between atoms: O18_18  and  C44_44
REMARK   18  A    between atoms: N19_19  and  C20_20
REMARK   19  A    between atoms: N19_19  and  C28_28
REMARK   20  A    between atoms: C24_24  and  C35_35
REMARK   21  A    between atoms: C27_27  and  C39_39
REMARK   22  A    between atoms: C36_36  and  C43_43
REMARK   23  A    between atoms: C41_41  and  C44_44
REMARK                            x       y       z     vdW  Elec       q    Type
REMARK                         _______ _______ _______ _____ _____    ______ ____
ROOT
ATOM      1  O1  UNK     0      38.590  16.426 197.064  0.00  0.00    +0.000 OA
ENDROOT
BRANCH   1   7
ATOM      2  O2  UNK     0      38.308  14.700 195.507  0.00  0.00    +0.000 OA
ATOM      3  C20 UNK     0      37.259  15.037 193.297  0.00  0.00    +0.000 C 
ATOM      4  C21 UNK     0      37.350  16.559 193.517  0.00  0.00    +0.000 C 
ATOM      5  C23 UNK     0      37.482  16.932 194.996  0.00  0.00    +0.000 C 
ATOM      6  C24 UNK     0      38.282  14.251 194.146  0.00  0.00    +0.000 C 
ATOM      7  C25 UNK     0      38.565  16.093 195.677  0.00  0.00    +0.000 C 
ATOM      8  C35 UNK     0      39.690  14.241 193.548  0.00  0.00    +0.000 C 
BRANCH   4   9
ATOM      9  O5  UNK     0      38.482  17.080 192.821  0.00  0.00    +0.000 OA
ATOM     10  H70 UNK     0      38.722  16.439 192.130  0.00  0.00    +0.000 HD
ENDBRANCH   4   9
BRANCH   5  11
ATOM     11  O6  UNK     0      36.241  16.710 195.665  0.00  0.00    +0.000 OA
ATOM     12  H72 UNK     0      35.554  16.614 194.982  0.00  0.00    +0.000 HD
ENDBRANCH   5  11
BRANCH   3  13
ATOM     13  N19 UNK     0      35.908  14.576 193.649  0.00  0.00    +0.000 NA
ATOM     14  H55 UNK     0      35.666  14.892 194.587  0.00  0.00    +0.000 HD
BRANCH  13  15
ATOM     15  C28 UNK     0      34.928  15.062 192.674  0.00  0.00    +0.000 C 
ATOM     16  C31 UNK     0      33.730  15.727 193.385  0.00  0.00    +0.000 C 
ATOM     17  C33 UNK     0      32.580  15.995 192.405  0.00  0.00    +0.000 C 
ATOM     18  C37 UNK     0      34.517  13.971 191.719  0.00  0.00    +0.000 C 
ATOM     19  C38 UNK     0      32.125  14.718 191.673  0.00  0.00    +0.000 C 
ATOM     20  C41 UNK     0      33.259  13.799 191.274  0.00  0.00    +0.000 C 
BRANCH  16  21
ATOM     21  O10 UNK     0      33.254  14.926 194.467  0.00  0.00    +0.000 OA
ATOM     22  H77 UNK     0      32.824  14.143 194.085  0.00  0.00    +0.000 HD
ENDBRANCH  16  21
BRANCH  17  23
ATOM     23  O11 UNK     0      32.995  16.949 191.428  0.00  0.00    +0.000 OA
ATOM     24  H80 UNK     0      33.877  16.684 191.114  0.00  0.00    +0.000 HD
ENDBRANCH  17  23
BRANCH  19  25
ATOM     25  O13 UNK     0      31.241  13.975 192.512  0.00  0.00    +0.000 OA
ATOM     26  H82 UNK     0      31.767  13.291 192.960  0.00  0.00    +0.000 HD
ENDBRANCH  19  25
BRANCH  20  27
ATOM     27  C44 UNK     0      32.910  12.686 190.328  0.00  0.00    +0.000 C 
BRANCH  27  28
ATOM     28  O18 UNK     0      32.092  11.740 190.988  0.00  0.00    +0.000 OA
ATOM     29  H87 UNK     0      31.197  12.117 191.037  0.00  0.00    +0.000 HD
ENDBRANCH  27  28
ENDBRANCH  20  27
ENDBRANCH  13  15
ENDBRANCH   3  13
ENDBRANCH   1   7
BRANCH   1  31
ATOM     30  O3  UNK     0      40.900  14.625 197.622  0.00  0.00    +0.000 OA
ATOM     31  C22 UNK     0      39.891  16.862 197.472  0.00  0.00    +0.000 C 
ATOM     32  C26 UNK     0      39.890  16.955 199.003  0.00  0.00    +0.000 C 
ATOM     33  C27 UNK     0      40.929  15.873 196.917  0.00  0.00    +0.000 C 
ATOM     34  C29 UNK     0      39.971  15.573 199.657  0.00  0.00    +0.000 C 
ATOM     35  C30 UNK     0      41.083  14.728 199.032  0.00  0.00    +0.000 C 
BRANCH  32  36
ATOM     36  O7  UNK     0      40.999  17.730 199.446  0.00  0.00    +0.000 OA
ATOM     37  H73 UNK     0      41.753  17.127 199.555  0.00  0.00    +0.000 HD
ENDBRANCH  32  36
BRANCH  34  38
ATOM     38  O9  UNK     0      38.719  14.901 199.511  0.00  0.00    +0.000 OA
ATOM     39  H74 UNK     0      38.257  14.955 200.365  0.00  0.00    +0.000 HD
ENDBRANCH  34  38
BRANCH  35  40
ATOM     40  O4  UNK     0      41.058  13.435 199.632  0.00  0.00    +0.000 OA
BRANCH  40  42
ATOM     41  O8  UNK     0      40.484  10.176 198.008  0.00  0.00    +0.000 OA
ATOM     42  C32 UNK     0      41.236  12.407 198.659  0.00  0.00    +0.000 C 
ATOM     43  C34 UNK     0      42.674  11.896 198.769  0.00  0.00    +0.000 C 
ATOM     44  C36 UNK     0      40.226  11.275 198.889  0.00  0.00    +0.000 C 
ATOM     45  C40 UNK     0      42.866  10.646 197.911  0.00  0.00    +0.000 C 
ATOM     46  C42 UNK     0      41.781   9.603 198.182  0.00  0.00    +0.000 C 
BRANCH  43  47
ATOM     47  O12 UNK     0      43.551  12.923 198.301  0.00  0.00    +0.000 OA
ATOM     48  H81 UNK     0      43.139  13.349 197.530  0.00  0.00    +0.000 HD
ENDBRANCH  43  47
BRANCH  45  49
ATOM     49  O15 UNK     0      44.154  10.096 198.162  0.00  0.00    +0.000 OA
ATOM     50  H84 UNK     0      44.789  10.833 198.184  0.00  0.00    +0.000 HD
ENDBRANCH  45  49
BRANCH  46  51
ATOM     51  O16 UNK     0      41.929   8.977 199.455  0.00  0.00    +0.000 OA
ATOM     52  H85 UNK     0      41.230   8.306 199.528  0.00  0.00    +0.000 HD
ENDBRANCH  46  51
BRANCH  44  53
ATOM     53  C43 UNK     0      38.791  11.727 198.631  0.00  0.00    +0.000 C 
BRANCH  53  54
ATOM     54  O17 UNK     0      38.803  12.699 197.602  0.00  0.00    +0.000 OA
ATOM     55  H86 UNK     0      39.148  13.521 197.989  0.00  0.00    +0.000 HD
ENDBRANCH  53  54
ENDBRANCH  44  53
ENDBRANCH  40  42
ENDBRANCH  35  40
BRANCH  33  56
ATOM     56  C39 UNK     0      42.346  16.440 196.855  0.00  0.00    +0.000 C 
BRANCH  56  57
ATOM     57  O14 UNK     0      42.263  17.842 196.675  0.00  0.00    +0.000 OA
ATOM     58  H83 UNK     0      43.161  18.160 196.483  0.00  0.00    +0.000 HD
ENDBRANCH  56  57
ENDBRANCH  33  56
ENDBRANCH   1  31
TORSDOF 22
REMARK  Name = Brazilin.pdb
REMARK  4 active torsions:
REMARK  status: ('A' for Active; 'I' for Inactive)
REMARK    1  A    between atoms: C3_3  and  O3_6
REMARK    2  A    between atoms: C4_4  and  O4_7
REMARK    3  A    between atoms: C10_10  and  O1_16
REMARK    4  A    between atoms: C19_19  and  O1_21
REMARK                            x       y       z     vdW  Elec       q    Type
REMARK                         _______ _______ _______ _____ _____    ______ ____
ROOT
ATOM      1 3C45 GLC     4      33.296  12.029 196.714  0.00  0.00    +0.000 A 
ATOM      2  C2  GLC     4      33.067  13.024 197.767  0.00  0.00    +0.000 A 
ATOM      3  C3  GLC     4      34.092  13.814 198.103  0.00  0.00    +0.000 A 
ATOM      4  C4  GLC     4      35.386  13.688 197.419  0.00  0.00    +0.000 A 
ATOM      5  C5  GLC     4      35.576  12.786 196.447  0.00  0.00    +0.000 A 
ATOM      6 3C45 GLC     4      34.469  11.917 196.100  0.00  0.00    +0.000 A 
ATOM      7  C9  GLC     4      34.409  10.753 195.115  0.00  0.00    +0.000 C 
ATOM      8  C10 GLC     4      32.951  10.817 194.787  0.00  0.00    +0.000 C 
ATOM      9  C11 GLC     4      32.345  10.969 196.206  0.00  0.00    +0.000 C 
ATOM     10  C12 GLC     4      32.504   9.633 193.936  0.00  0.00    +0.000 C 
ATOM     11  O13 GLC     4      33.276   9.675 192.732  0.00  0.00    +0.000 OA
ATOM     12  C14 GLC     4      34.561  10.112 192.672  0.00  0.00    +0.000 A 
ATOM     13  C15 GLC     4      35.224  10.688 193.858  0.00  0.00    +0.000 A 
ATOM     14  C17 GLC     4      36.489  11.089 193.768  0.00  0.00    +0.000 A 
ATOM     15  C18 GLC     4      37.189  10.969 192.496  0.00  0.00    +0.000 A 
ATOM     16  C19 GLC     4      36.574  10.453 191.433  0.00  0.00    +0.000 A 
ATOM     17  C20 GLC     4      35.213  10.007 191.523  0.00  0.00    +0.000 A 
ENDROOT
BRANCH   3  18
ATOM     18  O3  GLC     4      33.991  14.768 199.104  0.00  0.00    +0.000 OA
ATOM     19  H3  GLC     4      33.600  15.631 198.775  0.00  0.00    +0.000 HD
ENDBRANCH   3  18
BRANCH   4  20
ATOM     20  O4  GLC     4      36.403  14.520 197.820  0.00  0.00    +0.000 OA
ATOM     21  H4  GLC     4      36.235  14.827 198.778  0.00  0.00    +0.000 HD
ENDBRANCH   4  20
BRANCH   8  22
ATOM     22  O1  GLC     4      32.690  12.003 194.014  0.00  0.00    +0.000 OA
ATOM     23  H10 GLC     4      31.918  12.493 194.369  0.00  0.00    +0.000 HD
ENDBRANCH   8  22
BRANCH  16  24
ATOM     24  O1  GLC     4      37.229  10.342 190.253  0.00  0.00    +0.000 OA
ATOM     25  H14 GLC     4      38.113  10.047 190.443  0.00  0.00    +0.000 HD
ENDBRANCH  16  24
TORSDOF 4
ENDMDL
