MODEL 1
REMARK VINA RESULT:    -2.941      0.000      0.000
REMARK INTER + INTRA:          -9.650
REMARK INTER:                  -5.949
REMARK INTRA:                  -3.701
REMARK UNBOUND:                -3.701
REMARK  Name = HEMCA.pdb
REMARK  4 active torsions:
REMARK  status: ('A' for Active; 'I' for Inactive)
REMARK    1  A    between atoms: C5_5  and  O19_19
REMARK    2  A    between atoms: C6_6  and  O18_18
REMARK    3  A    between atoms: C7_7  and  O20_20
REMARK    4  A    between atoms: C17_17  and  O21_21
REMARK                            x       y       z     vdW  Elec       q    Type
REMARK                         _______ _______ _______ _____ _____    ______ ____
ROOT
ATOM      1  C1  UNK H   1      36.394  17.050 198.643  0.00  0.00    +0.000 A 
ATOM      2  C2  UNK H   1      37.177  16.741 199.676  0.00  0.00    +0.000 A 
ATOM      3  C3  UNK H   1      35.953  15.992 197.713  0.00  0.00    +0.000 A 
ATOM      4  C4  UNK H   1      37.611  15.358 199.880  0.00  0.00    +0.000 A 
ATOM      5  C5  UNK H   1      36.362  14.738 197.897  0.00  0.00    +0.000 A 
ATOM      6  C6  UNK H   1      37.230  14.407 199.028  0.00  0.00    +0.000 A 
ATOM      7  C7  UNK H   1      35.278  18.668 197.055  0.00  0.00    +0.000 C 
ATOM      8  C8  UNK H   1      35.961  18.417 198.335  0.00  0.00    +0.000 C 
ATOM      9  C9  UNK H   1      34.376  17.519 196.607  0.00  0.00    +0.000 C 
ATOM     10  O10 UNK H   1      35.089  16.288 196.659  0.00  0.00    +0.000 OA
ATOM     11  C11 UNK H   1      34.637  20.086 197.195  0.00  0.00    +0.000 C 
ATOM     12  C12 UNK H   1      35.539  20.622 198.270  0.00  0.00    +0.000 C 
ATOM     13  C13 UNK H   1      36.188  19.568 198.969  0.00  0.00    +0.000 C 
ATOM     14  C14 UNK H   1      35.632  21.890 198.652  0.00  0.00    +0.000 C 
ATOM     15  C15 UNK H   1      36.468  22.191 199.825  0.00  0.00    +0.000 C 
ATOM     16  C16 UNK H   1      36.946  19.821 200.192  0.00  0.00    +0.000 C 
ATOM     17  C17 UNK H   1      37.088  21.085 200.598  0.00  0.00    +0.000 C 
ATOM     18  O22 UNK H   1      36.609  23.360 200.200  0.00  0.00    +0.000 OA
ENDROOT
BRANCH   6  19
ATOM     19  O18 UNK H   1      37.646  13.095 199.222  0.00  0.00    +0.000 OA
ATOM     20  H9  UNK H   1      38.670  13.083 199.458  0.00  0.00    +0.000 HD
ENDBRANCH   6  19
BRANCH   5  21
ATOM     21  O19 UNK H   1      35.942  13.738 197.027  0.00  0.00    +0.000 OA
ATOM     22  H10 UNK H   1      36.196  12.800 197.423  0.00  0.00    +0.000 HD
ENDBRANCH   5  21
BRANCH   7  23
ATOM     23  O20 UNK H   1      36.361  18.776 196.130  0.00  0.00    +0.000 OA
ATOM     24  H11 UNK H   1      36.197  18.128 195.320  0.00  0.00    +0.000 HD
ENDBRANCH   7  23
BRANCH  17  25
ATOM     25  O21 UNK H   1      37.816  21.365 201.748  0.00  0.00    +0.000 OA
ATOM     26  H12 UNK H   1      38.823  21.108 201.596  0.00  0.00    +0.000 HD
ENDBRANCH  17  25
TORSDOF 4
REMARK  Name = Acarbose.pdb
REMARK  23 active torsions:
REMARK  status: ('A' for Active; 'I' for Inactive)
REMARK    1  A    between atoms: O1_1  and  C22_22
REMARK    2  A    between atoms: O1_1  and  C25_25
REMARK    3  A    between atoms: O4_4  and  C30_30
REMARK    4  A    between atoms: O4_4  and  C32_32
REMARK    5  A    between atoms: O5_5  and  C21_21
REMARK    6  A    between atoms: O6_6  and  C23_23
REMARK    7  A    between atoms: O7_7  and  C26_26
REMARK    8  A    between atoms: O9_9  and  C29_29
REMARK    9  A    between atoms: O10_10  and  C31_31
REMARK   10  A    between atoms: O11_11  and  C33_33
REMARK   11  A    between atoms: O12_12  and  C34_34
REMARK   12  A    between atoms: O13_13  and  C38_38
REMARK   13  A    between atoms: O14_14  and  C39_39
REMARK   14  A    between atoms: O15_15  and  C40_40
REMARK   15  A    between atoms: O16_16  and  C42_42
REMARK   16  A    between atoms: O17_17  and  C43_43
REMARK   17  A    between atoms: O18_18  and  C44_44
REMARK   18  A    between atoms: N19_19  and  C20_20
REMARK   19  A    between atoms: N19_19  and  C28_28
REMARK   20  A    between atoms: C24_24  and  C35_35
REMARK   21  A    between atoms: C27_27  and  C39_39
REMARK   22  A    between atoms: C36_36  and  C43_43
REMARK   23  A    between atoms: C41_41  and  C44_44
REMARK                            x       y       z     vdW  Elec       q    Type
REMARK                         _______ _______ _______ _____ _____    ______ ____
ROOT
ATOM      1  O1  UNK     0      40.716  16.602 194.480  0.00  0.00    +0.000 OA
ENDROOT
BRANCH   1   7
ATOM      2  O2  UNK     0      41.731  17.815 196.206  0.00  0.00    +0.000 OA
ATOM      3  C20 UNK     0      41.266  17.404 198.596  0.00  0.00    +0.000 C 
ATOM      4  C21 UNK     0      40.539  16.104 198.202  0.00  0.00    +0.000 C 
ATOM      5  C23 UNK     0      40.083  16.107 196.741  0.00  0.00    +0.000 C 
ATOM      6  C24 UNK     0      42.283  17.863 197.528  0.00  0.00    +0.000 C 
ATOM      7  C25 UNK     0      41.219  16.544 195.813  0.00  0.00    +0.000 C 
ATOM      8  C35 UNK     0      43.615  17.113 197.592  0.00  0.00    +0.000 C 
BRANCH   4   9
ATOM      9  O5  UNK     0      41.406  14.987 198.398  0.00  0.00    +0.000 OA
ATOM     10  H70 UNK     0      40.935  14.344 198.956  0.00  0.00    +0.000 HD
ENDBRANCH   4   9
BRANCH   5  11
ATOM     11  O6  UNK     0      38.985  17.005 196.577  0.00  0.00    +0.000 OA
ATOM     12  H72 UNK     0      38.911  17.206 195.628  0.00  0.00    +0.000 HD
ENDBRANCH   5  11
BRANCH   3  13
ATOM     13  N19 UNK     0      40.277  18.473 198.790  0.00  0.00    +0.000 NA
ATOM     14  H55 UNK     0      40.126  18.631 199.784  0.00  0.00    +0.000 HD
BRANCH  13  15
ATOM     15  C28 UNK     0      40.718  19.708 198.133  0.00  0.00    +0.000 C 
ATOM     16  C31 UNK     0      41.314  20.693 199.162  0.00  0.00    +0.000 C 
ATOM     17  C33 UNK     0      41.528  22.081 198.544  0.00  0.00    +0.000 C 
ATOM     18  C37 UNK     0      39.614  20.314 197.306  0.00  0.00    +0.000 C 
ATOM     19  C38 UNK     0      40.234  22.658 197.939  0.00  0.00    +0.000 C 
ATOM     20  C41 UNK     0      39.380  21.636 197.222  0.00  0.00    +0.000 C 
BRANCH  16  21
ATOM     21  O10 UNK     0      40.481  20.811 200.316  0.00  0.00    +0.000 OA
ATOM     22  H77 UNK     0      40.750  20.120 200.944  0.00  0.00    +0.000 HD
ENDBRANCH  16  21
BRANCH  17  23
ATOM     23  O11 UNK     0      42.510  21.999 197.512  0.00  0.00    +0.000 OA
ATOM     24  H80 UNK     0      42.091  21.580 196.740  0.00  0.00    +0.000 HD
ENDBRANCH  17  23
BRANCH  19  25
ATOM     25  O13 UNK     0      39.439  23.238 198.972  0.00  0.00    +0.000 OA
ATOM     26  H82 UNK     0      39.369  24.191 198.789  0.00  0.00    +0.000 HD
ENDBRANCH  19  25
BRANCH  20  27
ATOM     27  C44 UNK     0      38.257  22.179 196.385  0.00  0.00    +0.000 C 
BRANCH  27  28
ATOM     28  O18 UNK     0      37.820  21.187 195.476  0.00  0.00    +0.000 OA
ATOM     29  H87 UNK     0      37.052  20.746 195.878  0.00  0.00    +0.000 HD
ENDBRANCH  27  28
ENDBRANCH  20  27
ENDBRANCH  13  15
ENDBRANCH   3  13
ENDBRANCH   1   7
BRANCH   1  31
ATOM     30  O3  UNK     0      39.022  18.890 193.591  0.00  0.00    +0.000 OA
ATOM     31  C22 UNK     0      41.197  17.762 193.792  0.00  0.00    +0.000 C 
ATOM     32  C26 UNK     0      41.168  17.455 192.289  0.00  0.00    +0.000 C 
ATOM     33  C27 UNK     0      40.322  18.961 194.192  0.00  0.00    +0.000 C 
ATOM     34  C29 UNK     0      39.746  17.513 191.724  0.00  0.00    +0.000 C 
ATOM     35  C30 UNK     0      39.024  18.787 192.169  0.00  0.00    +0.000 C 
BRANCH  32  36
ATOM     36  O7  UNK     0      41.973  18.395 191.584  0.00  0.00    +0.000 OA
ATOM     37  H73 UNK     0      41.415  18.805 190.901  0.00  0.00    +0.000 HD
ENDBRANCH  32  36
BRANCH  34  38
ATOM     38  O9  UNK     0      39.012  16.369 192.161  0.00  0.00    +0.000 OA
ATOM     39  H74 UNK     0      39.649  15.646 192.296  0.00  0.00    +0.000 HD
ENDBRANCH  34  38
BRANCH  35  40
ATOM     40  O4  UNK     0      37.688  18.744 191.672  0.00  0.00    +0.000 OA
BRANCH  40  42
ATOM     41  O8  UNK     0      34.539  18.685 193.588  0.00  0.00    +0.000 OA
ATOM     42  C32 UNK     0      36.751  19.158 192.664  0.00  0.00    +0.000 C 
ATOM     43  C34 UNK     0      36.313  20.587 192.334  0.00  0.00    +0.000 C 
ATOM     44  C36 UNK     0      35.551  18.204 192.696  0.00  0.00    +0.000 C 
ATOM     45  C40 UNK     0      35.147  21.010 193.226  0.00  0.00    +0.000 C 
ATOM     46  C42 UNK     0      34.027  19.968 193.224  0.00  0.00    +0.000 C 
BRANCH  43  47
ATOM     47  O12 UNK     0      37.421  21.460 192.567  0.00  0.00    +0.000 OA
ATOM     48  H81 UNK     0      37.826  21.675 191.710  0.00  0.00    +0.000 HD
ENDBRANCH  43  47
BRANCH  45  49
ATOM     49  O15 UNK     0      34.651  22.269 192.785  0.00  0.00    +0.000 OA
ATOM     50  H84 UNK     0      34.306  22.149 191.883  0.00  0.00    +0.000 HD
ENDBRANCH  45  49
BRANCH  46  51
ATOM     51  O16 UNK     0      33.312  19.934 191.990  0.00  0.00    +0.000 OA
ATOM     52  H85 UNK     0      33.007  20.839 191.810  0.00  0.00    +0.000 HD
ENDBRANCH  46  51
BRANCH  44  53
ATOM     53  C43 UNK     0      35.941  16.808 193.175  0.00  0.00    +0.000 C 
BRANCH  53  54
ATOM     54  O17 UNK     0      36.927  16.937 194.182  0.00  0.00    +0.000 OA
ATOM     55  H86 UNK     0      36.990  17.882 194.403  0.00  0.00    +0.000 HD
ENDBRANCH  53  54
ENDBRANCH  44  53
ENDBRANCH  40  42
ENDBRANCH  35  40
BRANCH  33  56
ATOM     56  C39 UNK     0      40.978  20.316 193.932  0.00  0.00    +0.000 C 
BRANCH  56  57
ATOM     57  O14 UNK     0      42.031  20.491 194.862  0.00  0.00    +0.000 OA
ATOM     58  H83 UNK     0      41.633  20.493 195.748  0.00  0.00    +0.000 HD
ENDBRANCH  56  57
ENDBRANCH  33  56
ENDBRANCH   1  31
TORSDOF 22
ENDMDL
MODEL 2
REMARK VINA RESULT:    -2.891      2.837      6.059
REMARK INTER + INTRA:          -9.551
REMARK INTER:                  -6.024
REMARK INTRA:                  -3.527
REMARK UNBOUND:                -3.701
REMARK  Name = HEMCA.pdb
REMARK  4 active torsions:
REMARK  status: ('A' for Active; 'I' for Inactive)
REMARK    1  A    between atoms: C5_5  and  O19_19
REMARK    2  A    between atoms: C6_6  and  O18_18
REMARK    3  A    between atoms: C7_7  and  O20_20
REMARK    4  A    between atoms: C17_17  and  O21_21
REMARK                            x       y       z     vdW  Elec       q    Type
REMARK                         _______ _______ _______ _____ _____    ______ ____
ROOT
ATOM      1  C1  UNK H   1      37.191  14.668 199.144  0.00  0.00    +0.000 A 
ATOM      2  C2  UNK H   1      37.440  15.650 200.010  0.00  0.00    +0.000 A 
ATOM      3  C3  UNK H   1      38.312  13.953 198.502  0.00  0.00    +0.000 A 
ATOM      4  C4  UNK H   1      38.821  16.027 200.314  0.00  0.00    +0.000 A 
ATOM      5  C5  UNK H   1      39.565  14.310 198.773  0.00  0.00    +0.000 A 
ATOM      6  C6  UNK H   1      39.831  15.396 199.718  0.00  0.00    +0.000 A 
ATOM      7  C7  UNK H   1      35.689  13.320 197.622  0.00  0.00    +0.000 C 
ATOM      8  C8  UNK H   1      35.839  14.266 198.741  0.00  0.00    +0.000 C 
ATOM      9  C9  UNK H   1      36.792  12.265 197.561  0.00  0.00    +0.000 C 
ATOM     10  O10 UNK H   1      38.071  12.887 197.635  0.00  0.00    +0.000 OA
ATOM     11  C11 UNK H   1      34.209  12.824 197.691  0.00  0.00    +0.000 C 
ATOM     12  C12 UNK H   1      33.630  13.986 198.446  0.00  0.00    +0.000 C 
ATOM     13  C13 UNK H   1      34.644  14.710 199.131  0.00  0.00    +0.000 C 
ATOM     14  C14 UNK H   1      32.339  14.250 198.607  0.00  0.00    +0.000 C 
ATOM     15  C15 UNK H   1      31.972  15.355 199.506  0.00  0.00    +0.000 C 
ATOM     16  C16 UNK H   1      34.311  15.749 200.103  0.00  0.00    +0.000 C 
ATOM     17  C17 UNK H   1      33.025  16.065 200.276  0.00  0.00    +0.000 C 
ATOM     18  O22 UNK H   1      30.784  15.656 199.663  0.00  0.00    +0.000 OA
ENDROOT
BRANCH   6  19
ATOM     19  O18 UNK H   1      41.142  15.759 200.007  0.00  0.00    +0.000 OA
ATOM     20  H9  UNK H   1      41.401  16.611 199.449  0.00  0.00    +0.000 HD
ENDBRANCH   6  19
BRANCH   5  21
ATOM     21  O19 UNK H   1      40.623  13.634 198.177  0.00  0.00    +0.000 OA
ATOM     22  H10 UNK H   1      40.375  13.402 197.183  0.00  0.00    +0.000 HD
ENDBRANCH   5  21
BRANCH   7  23
ATOM     23  O20 UNK H   1      35.808  14.161 196.473  0.00  0.00    +0.000 OA
ATOM     24  H11 UNK H   1      36.663  14.764 196.567  0.00  0.00    +0.000 HD
ENDBRANCH   7  23
BRANCH  17  25
ATOM     25  O21 UNK H   1      32.672  17.059 201.180  0.00  0.00    +0.000 OA
ATOM     26  H12 UNK H   1      33.001  16.792 202.141  0.00  0.00    +0.000 HD
ENDBRANCH  17  25
TORSDOF 4
REMARK  Name = Acarbose.pdb
REMARK  23 active torsions:
REMARK  status: ('A' for Active; 'I' for Inactive)
REMARK    1  A    between atoms: O1_1  and  C22_22
REMARK    2  A    between atoms: O1_1  and  C25_25
REMARK    3  A    between atoms: O4_4  and  C30_30
REMARK    4  A    between atoms: O4_4  and  C32_32
REMARK    5  A    between atoms: O5_5  and  C21_21
REMARK    6  A    between atoms: O6_6  and  C23_23
REMARK    7  A    between atoms: O7_7  and  C26_26
REMARK    8  A    between atoms: O9_9  and  C29_29
REMARK    9  A    between atoms: O10_10  and  C31_31
REMARK   10  A    between atoms: O11_11  and  C33_33
REMARK   11  A    between atoms: O12_12  and  C34_34
REMARK   12  A    between atoms: O13_13  and  C38_38
REMARK   13  A    between atoms: O14_14  and  C39_39
REMARK   14  A    between atoms: O15_15  and  C40_40
REMARK   15  A    between atoms: O16_16  and  C42_42
REMARK   16  A    between atoms: O17_17  and  C43_43
REMARK   17  A    between atoms: O18_18  and  C44_44
REMARK   18  A    between atoms: N19_19  and  C20_20
REMARK   19  A    between atoms: N19_19  and  C28_28
REMARK   20  A    between atoms: C24_24  and  C35_35
REMARK   21  A    between atoms: C27_27  and  C39_39
REMARK   22  A    between atoms: C36_36  and  C43_43
REMARK   23  A    between atoms: C41_41  and  C44_44
REMARK                            x       y       z     vdW  Elec       q    Type
REMARK                         _______ _______ _______ _____ _____    ______ ____
ROOT
ATOM      1  O1  UNK     0      38.609  17.879 194.134  0.00  0.00    +0.000 OA
ENDROOT
BRANCH   1   7
ATOM      2  O2  UNK     0      37.265  19.290 195.432  0.00  0.00    +0.000 OA
ATOM      3  C20 UNK     0      37.303  19.290 197.901  0.00  0.00    +0.000 C 
ATOM      4  C21 UNK     0      38.576  18.422 197.854  0.00  0.00    +0.000 C 
ATOM      5  C23 UNK     0      38.732  17.683 196.522  0.00  0.00    +0.000 C 
ATOM      6  C24 UNK     0      37.086  20.098 196.603  0.00  0.00    +0.000 C 
ATOM      7  C25 UNK     0      38.529  18.634 195.341  0.00  0.00    +0.000 C 
ATOM      8  C35 UNK     0      37.935  21.368 196.526  0.00  0.00    +0.000 C 
BRANCH   4   9
ATOM      9  O5  UNK     0      39.727  19.243 198.049  0.00  0.00    +0.000 OA
ATOM     10  H70 UNK     0      39.730  19.916 197.347  0.00  0.00    +0.000 HD
ENDBRANCH   4   9
BRANCH   5  11
ATOM     11  O6  UNK     0      37.772  16.631 196.436  0.00  0.00    +0.000 OA
ATOM     12  H72 UNK     0      38.003  16.088 195.662  0.00  0.00    +0.000 HD
ENDBRANCH   5  11
BRANCH   3  13
ATOM     13  N19 UNK     0      36.134  18.425 198.115  0.00  0.00    +0.000 NA
ATOM     14  H55 UNK     0      35.848  18.461 199.092  0.00  0.00    +0.000 HD
BRANCH  13  15
ATOM     15  C28 UNK     0      35.029  18.828 197.240  0.00  0.00    +0.000 C 
ATOM     16  C31 UNK     0      34.054  19.765 197.985  0.00  0.00    +0.000 C 
ATOM     17  C33 UNK     0      32.763  19.977 197.182  0.00  0.00    +0.000 C 
ATOM     18  C37 UNK     0      34.347  17.631 196.630  0.00  0.00    +0.000 C 
ATOM     19  C38 UNK     0      32.066  18.647 196.834  0.00  0.00    +0.000 C 
ATOM     20  C41 UNK     0      33.017  17.533 196.455  0.00  0.00    +0.000 C 
BRANCH  16  21
ATOM     21  O10 UNK     0      33.730  19.259 199.280  0.00  0.00    +0.000 OA
ATOM     22  H77 UNK     0      33.857  19.982 199.917  0.00  0.00    +0.000 HD
ENDBRANCH  16  21
BRANCH  17  23
ATOM     23  O11 UNK     0      33.062  20.659 195.965  0.00  0.00    +0.000 OA
ATOM     24  H80 UNK     0      32.881  21.604 196.105  0.00  0.00    +0.000 HD
ENDBRANCH  17  23
BRANCH  19  25
ATOM     25  O13 UNK     0      31.301  18.201 197.953  0.00  0.00    +0.000 OA
ATOM     26  H82 UNK     0      30.371  18.148 197.670  0.00  0.00    +0.000 HD
ENDBRANCH  19  25
BRANCH  20  27
ATOM     27  C44 UNK     0      32.396  16.308 195.848  0.00  0.00    +0.000 C 
BRANCH  27  28
ATOM     28  O18 UNK     0      33.405  15.496 195.279  0.00  0.00    +0.000 OA
ATOM     29  H87 UNK     0      33.317  15.563 194.312  0.00  0.00    +0.000 HD
ENDBRANCH  27  28
ENDBRANCH  20  27
ENDBRANCH  13  15
ENDBRANCH   3  13
ENDBRANCH   1   7
BRANCH   1  31
ATOM     30  O3  UNK     0      36.301  16.124 193.434  0.00  0.00    +0.000 OA
ATOM     31  C22 UNK     0      37.556  18.229 193.229  0.00  0.00    +0.000 C 
ATOM     32  C26 UNK     0      37.999  17.817 191.820  0.00  0.00    +0.000 C 
ATOM     33  C27 UNK     0      36.266  17.533 193.695  0.00  0.00    +0.000 C 
ATOM     34  C29 UNK     0      37.895  16.305 191.609  0.00  0.00    +0.000 C 
ATOM     35  C30 UNK     0      36.538  15.772 192.073  0.00  0.00    +0.000 C 
BRANCH  32  36
ATOM     36  O7  UNK     0      37.190  18.466 190.845  0.00  0.00    +0.000 OA
ATOM     37  H73 UNK     0      36.483  17.849 190.592  0.00  0.00    +0.000 HD
ENDBRANCH  32  36
BRANCH  34  38
ATOM     38  O9  UNK     0      38.939  15.650 192.330  0.00  0.00    +0.000 OA
ATOM     39  H74 UNK     0      39.702  16.252 192.355  0.00  0.00    +0.000 HD
ENDBRANCH  34  38
BRANCH  35  40
ATOM     40  O4  UNK     0      36.534  14.354 191.918  0.00  0.00    +0.000 OA
BRANCH  40  42
ATOM     41  O8  UNK     0      36.099  11.751 194.492  0.00  0.00    +0.000 OA
ATOM     42  C32 UNK     0      35.936  13.712 193.042  0.00  0.00    +0.000 C 
ATOM     43  C34 UNK     0      34.509  13.314 192.657  0.00  0.00    +0.000 C 
ATOM     44  C36 UNK     0      36.761  12.486 193.456  0.00  0.00    +0.000 C 
ATOM     45  C40 UNK     0      33.890  12.426 193.735  0.00  0.00    +0.000 C 
ATOM     46  C42 UNK     0      34.812  11.264 194.108  0.00  0.00    +0.000 C 
BRANCH  43  47
ATOM     47  O12 UNK     0      33.731  14.507 192.531  0.00  0.00    +0.000 OA
ATOM     48  H81 UNK     0      33.377  14.546 191.626  0.00  0.00    +0.000 HD
ENDBRANCH  43  47
BRANCH  45  49
ATOM     49  O15 UNK     0      32.636  11.933 193.277  0.00  0.00    +0.000 OA
ATOM     50  H84 UNK     0      32.777  11.024 192.959  0.00  0.00    +0.000 HD
ENDBRANCH  45  49
BRANCH  46  51
ATOM     51  O16 UNK     0      34.893  10.277 193.081  0.00  0.00    +0.000 OA
ATOM     52  H85 UNK     0      34.139   9.676 193.200  0.00  0.00    +0.000 HD
ENDBRANCH  46  51
BRANCH  44  53
ATOM     53  C43 UNK     0      38.136  12.874 193.992  0.00  0.00    +0.000 C 
BRANCH  53  54
ATOM     54  O17 UNK     0      38.011  14.085 194.716  0.00  0.00    +0.000 OA
ATOM     55  H86 UNK     0      37.988  13.853 195.660  0.00  0.00    +0.000 HD
ENDBRANCH  53  54
ENDBRANCH  44  53
ENDBRANCH  40  42
ENDBRANCH  35  40
BRANCH  33  56
ATOM     56  C39 UNK     0      34.991  18.167 193.141  0.00  0.00    +0.000 C 
BRANCH  56  57
ATOM     57  O14 UNK     0      34.830  19.444 193.729  0.00  0.00    +0.000 OA
ATOM     58  H83 UNK     0      34.003  19.423 194.239  0.00  0.00    +0.000 HD
ENDBRANCH  56  57
ENDBRANCH  33  56
ENDBRANCH   1  31
TORSDOF 22
ENDMDL
MODEL 3
REMARK VINA RESULT:    -2.880      4.286      9.539
REMARK INTER + INTRA:          -9.528
REMARK INTER:                  -5.949
REMARK INTRA:                  -3.579
REMARK UNBOUND:                -3.701
REMARK  Name = HEMCA.pdb
REMARK  4 active torsions:
REMARK  status: ('A' for Active; 'I' for Inactive)
REMARK    1  A    between atoms: C5_5  and  O19_19
REMARK    2  A    between atoms: C6_6  and  O18_18
REMARK    3  A    between atoms: C7_7  and  O20_20
REMARK    4  A    between atoms: C17_17  and  O21_21
REMARK                            x       y       z     vdW  Elec       q    Type
REMARK                         _______ _______ _______ _____ _____    ______ ____
ROOT
ATOM      1  C1  UNK H   1      39.827  10.664 192.476  0.00  0.00    +0.000 A 
ATOM      2  C2  UNK H   1      39.466  11.010 191.241  0.00  0.00    +0.000 A 
ATOM      3  C3  UNK H   1      39.127   9.562 193.165  0.00  0.00    +0.000 A 
ATOM      4  C4  UNK H   1      38.369  10.308 190.574  0.00  0.00    +0.000 A 
ATOM      5  C5  UNK H   1      38.121   8.936 192.558  0.00  0.00    +0.000 A 
ATOM      6  C6  UNK H   1      37.723   9.328 191.205  0.00  0.00    +0.000 A 
ATOM      7  C7  UNK H   1      41.044  11.025 194.662  0.00  0.00    +0.000 C 
ATOM      8  C8  UNK H   1      40.877  11.352 193.236  0.00  0.00    +0.000 C 
ATOM      9  C9  UNK H   1      40.776   9.556 194.989  0.00  0.00    +0.000 C 
ATOM     10  O10 UNK H   1      39.528   9.151 194.437  0.00  0.00    +0.000 OA
ATOM     11  C11 UNK H   1      42.430  11.621 195.068  0.00  0.00    +0.000 C 
ATOM     12  C12 UNK H   1      42.536  12.664 193.992  0.00  0.00    +0.000 C 
ATOM     13  C13 UNK H   1      41.676  12.365 192.900  0.00  0.00    +0.000 C 
ATOM     14  C14 UNK H   1      43.409  13.662 193.954  0.00  0.00    +0.000 C 
ATOM     15  C15 UNK H   1      43.448  14.493 192.740  0.00  0.00    +0.000 C 
ATOM     16  C16 UNK H   1      41.756  13.108 191.645  0.00  0.00    +0.000 C 
ATOM     17  C17 UNK H   1      42.602  14.138 191.572  0.00  0.00    +0.000 C 
ATOM     18  O22 UNK H   1      44.224  15.451 192.671  0.00  0.00    +0.000 OA
ENDROOT
BRANCH   6  19
ATOM     19  O18 UNK H   1      36.678   8.664 190.570  0.00  0.00    +0.000 OA
ATOM     20  H9  UNK H   1      35.784   9.195 190.720  0.00  0.00    +0.000 HD
ENDBRANCH   6  19
BRANCH   5  21
ATOM     21  O19 UNK H   1      37.465   7.893 193.201  0.00  0.00    +0.000 OA
ATOM     22  H10 UNK H   1      36.490   7.806 192.822  0.00  0.00    +0.000 HD
ENDBRANCH   5  21
BRANCH   7  23
ATOM     23  O20 UNK H   1      40.034  11.816 195.292  0.00  0.00    +0.000 OA
ATOM     24  H11 UNK H   1      40.283  11.963 196.301  0.00  0.00    +0.000 HD
ENDBRANCH   7  23
BRANCH  17  25
ATOM     25  O21 UNK H   1      42.693  14.878 190.399  0.00  0.00    +0.000 OA
ATOM     26  H12 UNK H   1      42.204  15.799 190.527  0.00  0.00    +0.000 HD
ENDBRANCH  17  25
TORSDOF 4
REMARK  Name = Acarbose.pdb
REMARK  23 active torsions:
REMARK  status: ('A' for Active; 'I' for Inactive)
REMARK    1  A    between atoms: O1_1  and  C22_22
REMARK    2  A    between atoms: O1_1  and  C25_25
REMARK    3  A    between atoms: O4_4  and  C30_30
REMARK    4  A    between atoms: O4_4  and  C32_32
REMARK    5  A    between atoms: O5_5  and  C21_21
REMARK    6  A    between atoms: O6_6  and  C23_23
REMARK    7  A    between atoms: O7_7  and  C26_26
REMARK    8  A    between atoms: O9_9  and  C29_29
REMARK    9  A    between atoms: O10_10  and  C31_31
REMARK   10  A    between atoms: O11_11  and  C33_33
REMARK   11  A    between atoms: O12_12  and  C34_34
REMARK   12  A    between atoms: O13_13  and  C38_38
REMARK   13  A    between atoms: O14_14  and  C39_39
REMARK   14  A    between atoms: O15_15  and  C40_40
REMARK   15  A    between atoms: O16_16  and  C42_42
REMARK   16  A    between atoms: O17_17  and  C43_43
REMARK   17  A    between atoms: O18_18  and  C44_44
REMARK   18  A    between atoms: N19_19  and  C20_20
REMARK   19  A    between atoms: N19_19  and  C28_28
REMARK   20  A    between atoms: C24_24  and  C35_35
REMARK   21  A    between atoms: C27_27  and  C39_39
REMARK   22  A    between atoms: C36_36  and  C43_43
REMARK   23  A    between atoms: C41_41  and  C44_44
REMARK                            x       y       z     vdW  Elec       q    Type
REMARK                         _______ _______ _______ _____ _____    ______ ____
ROOT
ATOM      1  O1  UNK     0      35.156  13.109 195.457  0.00  0.00    +0.000 OA
ENDROOT
BRANCH   1   7
ATOM      2  O2  UNK     0      35.691  14.653 193.781  0.00  0.00    +0.000 OA
ATOM      3  C20 UNK     0      36.447  13.987 191.527  0.00  0.00    +0.000 C 
ATOM      4  C21 UNK     0      36.031  12.537 191.846  0.00  0.00    +0.000 C 
ATOM      5  C23 UNK     0      35.943  12.271 193.351  0.00  0.00    +0.000 C 
ATOM      6  C24 UNK     0      35.703  15.024 192.396  0.00  0.00    +0.000 C 
ATOM      7  C25 UNK     0      35.139  13.367 194.055  0.00  0.00    +0.000 C 
ATOM      8  C35 UNK     0      34.289  15.333 191.900  0.00  0.00    +0.000 C 
BRANCH   4   9
ATOM      9  O5  UNK     0      34.756  12.263 191.266  0.00  0.00    +0.000 OA
ATOM     10  H70 UNK     0      34.753  11.329 190.993  0.00  0.00    +0.000 HD
ENDBRANCH   4   9
BRANCH   5  11
ATOM     11  O6  UNK     0      37.254  12.230 193.914  0.00  0.00    +0.000 OA
ATOM     12  H72 UNK     0      37.204  11.703 194.731  0.00  0.00    +0.000 HD
ENDBRANCH   5  11
BRANCH   3  13
ATOM     13  N19 UNK     0      37.891  14.138 191.752  0.00  0.00    +0.000 NA
ATOM     14  H55 UNK     0      38.391  14.067 190.868  0.00  0.00    +0.000 HD
BRANCH  13  15
ATOM     15  C28 UNK     0      38.179  15.418 192.405  0.00  0.00    +0.000 C 
ATOM     16  C31 UNK     0      38.740  16.437 191.389  0.00  0.00    +0.000 C 
ATOM     17  C33 UNK     0      39.296  17.680 192.098  0.00  0.00    +0.000 C 
ATOM     18  C37 UNK     0      39.068  15.234 193.608  0.00  0.00    +0.000 C 
ATOM     19  C38 UNK     0      40.368  17.326 193.146  0.00  0.00    +0.000 C 
ATOM     20  C41 UNK     0      40.062  16.077 193.943  0.00  0.00    +0.000 C 
BRANCH  16  21
ATOM     21  O10 UNK     0      39.760  15.858 190.577  0.00  0.00    +0.000 OA
ATOM     22  H77 UNK     0      39.348  15.158 190.044  0.00  0.00    +0.000 HD
ENDBRANCH  16  21
BRANCH  17  23
ATOM     23  O11 UNK     0      38.235  18.371 192.755  0.00  0.00    +0.000 OA
ATOM     24  H80 UNK     0      37.666  18.760 192.069  0.00  0.00    +0.000 HD
ENDBRANCH  17  23
BRANCH  19  25
ATOM     25  O13 UNK     0      41.624  17.129 192.498  0.00  0.00    +0.000 OA
ATOM     26  H82 UNK     0      41.444  16.910 191.568  0.00  0.00    +0.000 HD
ENDBRANCH  19  25
BRANCH  20  27
ATOM     27  C44 UNK     0      40.919  15.833 195.151  0.00  0.00    +0.000 C 
BRANCH  27  28
ATOM     28  O18 UNK     0      40.391  14.755 195.899  0.00  0.00    +0.000 OA
ATOM     29  H87 UNK     0      39.756  14.291 195.327  0.00  0.00    +0.000 HD
ENDBRANCH  27  28
ENDBRANCH  20  27
ENDBRANCH  13  15
ENDBRANCH   3  13
ENDBRANCH   1   7
BRANCH   1  31
ATOM     30  O3  UNK     0      37.559  13.749 197.102  0.00  0.00    +0.000 OA
ATOM     31  C22 UNK     0      35.340  14.315 196.207  0.00  0.00    +0.000 C 
ATOM     32  C26 UNK     0      34.732  14.094 197.598  0.00  0.00    +0.000 C 
ATOM     33  C27 UNK     0      36.843  14.641 196.238  0.00  0.00    +0.000 C 
ATOM     34  C29 UNK     0      35.628  13.220 198.479  0.00  0.00    +0.000 C 
ATOM     35  C30 UNK     0      37.080  13.701 198.444  0.00  0.00    +0.000 C 
BRANCH  32  36
ATOM     36  O7  UNK     0      34.540  15.345 198.250  0.00  0.00    +0.000 OA
ATOM     37  H73 UNK     0      34.432  15.167 199.200  0.00  0.00    +0.000 HD
ENDBRANCH  32  36
BRANCH  34  38
ATOM     38  O9  UNK     0      35.562  11.865 198.031  0.00  0.00    +0.000 OA
ATOM     39  H74 UNK     0      36.380  11.423 198.313  0.00  0.00    +0.000 HD
ENDBRANCH  34  38
BRANCH  35  40
ATOM     40  O4  UNK     0      37.871  12.805 199.223  0.00  0.00    +0.000 OA
BRANCH  40  42
ATOM     41  O8  UNK     0      40.617  10.614 198.108  0.00  0.00    +0.000 OA
ATOM     42  C32 UNK     0      39.079  12.461 198.549  0.00  0.00    +0.000 C 
ATOM     43  C34 UNK     0      40.219  13.265 199.179  0.00  0.00    +0.000 C 
ATOM     44  C36 UNK     0      39.339  10.953 198.658  0.00  0.00    +0.000 C 
ATOM     45  C40 UNK     0      41.570  12.781 198.657  0.00  0.00    +0.000 C 
ATOM     46  C42 UNK     0      41.707  11.262 198.767  0.00  0.00    +0.000 C 
BRANCH  43  47
ATOM     47  O12 UNK     0      40.045  14.639 198.824  0.00  0.00    +0.000 OA
ATOM     48  H81 UNK     0      39.283  14.706 198.224  0.00  0.00    +0.000 HD
ENDBRANCH  43  47
BRANCH  45  49
ATOM     49  O15 UNK     0      42.613  13.425 199.381  0.00  0.00    +0.000 OA
ATOM     50  H84 UNK     0      43.448  12.986 199.144  0.00  0.00    +0.000 HD
ENDBRANCH  45  49
BRANCH  46  51
ATOM     51  O16 UNK     0      41.862  10.822 200.115  0.00  0.00    +0.000 OA
ATOM     52  H85 UNK     0      41.478   9.931 200.172  0.00  0.00    +0.000 HD
ENDBRANCH  46  51
BRANCH  44  53
ATOM     53  C43 UNK     0      38.296  10.134 197.901  0.00  0.00    +0.000 C 
BRANCH  53  54
ATOM     54  O17 UNK     0      37.956  10.828 196.715  0.00  0.00    +0.000 OA
ATOM     55  H86 UNK     0      38.433  11.674 196.730  0.00  0.00    +0.000 HD
ENDBRANCH  53  54
ENDBRANCH  44  53
ENDBRANCH  40  42
ENDBRANCH  35  40
BRANCH  33  56
ATOM     56  C39 UNK     0      37.149  16.100 196.571  0.00  0.00    +0.000 C 
BRANCH  56  57
ATOM     57  O14 UNK     0      36.605  16.918 195.552  0.00  0.00    +0.000 OA
ATOM     58  H83 UNK     0      35.677  17.088 195.785  0.00  0.00    +0.000 HD
ENDBRANCH  56  57
ENDBRANCH  33  56
ENDBRANCH   1  31
TORSDOF 22
ENDMDL
MODEL 4
REMARK VINA RESULT:    -2.873      3.188      8.917
REMARK INTER + INTRA:          -9.514
REMARK INTER:                  -6.565
REMARK INTRA:                  -2.949
REMARK UNBOUND:                -3.701
REMARK  Name = HEMCA.pdb
REMARK  4 active torsions:
REMARK  status: ('A' for Active; 'I' for Inactive)
REMARK    1  A    between atoms: C5_5  and  O19_19
REMARK    2  A    between atoms: C6_6  and  O18_18
REMARK    3  A    between atoms: C7_7  and  O20_20
REMARK    4  A    between atoms: C17_17  and  O21_21
REMARK                            x       y       z     vdW  Elec       q    Type
REMARK                         _______ _______ _______ _____ _____    ______ ____
ROOT
ATOM      1  C1  UNK H   1      38.239  14.189 193.494  0.00  0.00    +0.000 A 
ATOM      2  C2  UNK H   1      38.745  14.924 192.504  0.00  0.00    +0.000 A 
ATOM      3  C3  UNK H   1      36.808  13.825 193.481  0.00  0.00    +0.000 A 
ATOM      4  C4  UNK H   1      37.882  15.380 191.413  0.00  0.00    +0.000 A 
ATOM      5  C5  UNK H   1      36.026  14.254 192.493  0.00  0.00    +0.000 A 
ATOM      6  C6  UNK H   1      36.586  15.069 191.414  0.00  0.00    +0.000 A 
ATOM      7  C7  UNK H   1      38.311  13.120 195.783  0.00  0.00    +0.000 C 
ATOM      8  C8  UNK H   1      39.021  13.740 194.651  0.00  0.00    +0.000 C 
ATOM      9  C9  UNK H   1      37.111  12.272 195.363  0.00  0.00    +0.000 C 
ATOM     10  O10 UNK H   1      36.274  13.011 194.480  0.00  0.00    +0.000 OA
ATOM     11  C11 UNK H   1      39.420  12.438 196.647  0.00  0.00    +0.000 C 
ATOM     12  C12 UNK H   1      40.586  13.268 196.191  0.00  0.00    +0.000 C 
ATOM     13  C13 UNK H   1      40.310  13.904 194.950  0.00  0.00    +0.000 C 
ATOM     14  C14 UNK H   1      41.785  13.309 196.758  0.00  0.00    +0.000 C 
ATOM     15  C15 UNK H   1      42.840  14.074 196.073  0.00  0.00    +0.000 C 
ATOM     16  C16 UNK H   1      41.358  14.589 194.198  0.00  0.00    +0.000 C 
ATOM     17  C17 UNK H   1      42.573  14.678 194.743  0.00  0.00    +0.000 C 
ATOM     18  O22 UNK H   1      43.964  14.165 196.578  0.00  0.00    +0.000 OA
ENDROOT
BRANCH   6  19
ATOM     19  O18 UNK H   1      35.768  15.506 190.378  0.00  0.00    +0.000 OA
ATOM     20  H9  UNK H   1      35.184  16.315 190.710  0.00  0.00    +0.000 HD
ENDBRANCH   6  19
BRANCH   5  21
ATOM     21  O19 UNK H   1      34.681  13.906 192.474  0.00  0.00    +0.000 OA
ATOM     22  H10 UNK H   1      34.169  14.443 193.218  0.00  0.00    +0.000 HD
ENDBRANCH   5  21
BRANCH   7  23
ATOM     23  O20 UNK H   1      37.829  14.249 196.515  0.00  0.00    +0.000 OA
ATOM     24  H11 UNK H   1      36.824  14.095 196.775  0.00  0.00    +0.000 HD
ENDBRANCH   7  23
BRANCH  17  25
ATOM     25  O21 UNK H   1      43.591  15.337 194.064  0.00  0.00    +0.000 OA
ATOM     26  H12 UNK H   1      43.657  14.964 193.084  0.00  0.00    +0.000 HD
ENDBRANCH  17  25
TORSDOF 4
REMARK  Name = Acarbose.pdb
REMARK  23 active torsions:
REMARK  status: ('A' for Active; 'I' for Inactive)
REMARK    1  A    between atoms: O1_1  and  C22_22
REMARK    2  A    between atoms: O1_1  and  C25_25
REMARK    3  A    between atoms: O4_4  and  C30_30
REMARK    4  A    between atoms: O4_4  and  C32_32
REMARK    5  A    between atoms: O5_5  and  C21_21
REMARK    6  A    between atoms: O6_6  and  C23_23
REMARK    7  A    between atoms: O7_7  and  C26_26
REMARK    8  A    between atoms: O9_9  and  C29_29
REMARK    9  A    between atoms: O10_10  and  C31_31
REMARK   10  A    between atoms: O11_11  and  C33_33
REMARK   11  A    between atoms: O12_12  and  C34_34
REMARK   12  A    between atoms: O13_13  and  C38_38
REMARK   13  A    between atoms: O14_14  and  C39_39
REMARK   14  A    between atoms: O15_15  and  C40_40
REMARK   15  A    between atoms: O16_16  and  C42_42
REMARK   16  A    between atoms: O17_17  and  C43_43
REMARK   17  A    between atoms: O18_18  and  C44_44
REMARK   18  A    between atoms: N19_19  and  C20_20
REMARK   19  A    between atoms: N19_19  and  C28_28
REMARK   20  A    between atoms: C24_24  and  C35_35
REMARK   21  A    between atoms: C27_27  and  C39_39
REMARK   22  A    between atoms: C36_36  and  C43_43
REMARK   23  A    between atoms: C41_41  and  C44_44
REMARK                            x       y       z     vdW  Elec       q    Type
REMARK                         _______ _______ _______ _____ _____    ______ ____
ROOT
ATOM      1  O1  UNK     0      39.957  17.436 198.912  0.00  0.00    +0.000 OA
ENDROOT
BRANCH   1   7
ATOM      2  O2  UNK     0      39.544  16.928 196.664  0.00  0.00    +0.000 OA
ATOM      3  C20 UNK     0      37.645  17.871 195.398  0.00  0.00    +0.000 C 
ATOM      4  C21 UNK     0      37.407  18.867 196.549  0.00  0.00    +0.000 C 
ATOM      5  C23 UNK     0      38.019  18.393 197.870  0.00  0.00    +0.000 C 
ATOM      6  C24 UNK     0      39.093  17.334 195.365  0.00  0.00    +0.000 C 
ATOM      7  C25 UNK     0      39.466  17.936 197.671  0.00  0.00    +0.000 C 
ATOM      8  C35 UNK     0      40.087  18.300 194.719  0.00  0.00    +0.000 C 
BRANCH   4   9
ATOM      9  O5  UNK     0      37.979  20.132 196.218  0.00  0.00    +0.000 OA
ATOM     10  H70 UNK     0      37.784  20.742 196.950  0.00  0.00    +0.000 HD
ENDBRANCH   4   9
BRANCH   5  11
ATOM     11  O6  UNK     0      37.261  17.302 198.392  0.00  0.00    +0.000 OA
ATOM     12  H72 UNK     0      36.549  17.676 198.940  0.00  0.00    +0.000 HD
ENDBRANCH   5  11
BRANCH   3  13
ATOM     13  N19 UNK     0      36.728  16.732 195.544  0.00  0.00    +0.000 NA
ATOM     14  H55 UNK     0      36.905  16.252 196.425  0.00  0.00    +0.000 HD
BRANCH  13  15
ATOM     15  C28 UNK     0      35.334  17.181 195.474  0.00  0.00    +0.000 C 
ATOM     16  C31 UNK     0      34.409  16.218 196.250  0.00  0.00    +0.000 C 
ATOM     17  C33 UNK     0      32.930  16.517 195.964  0.00  0.00    +0.000 C 
ATOM     18  C37 UNK     0      34.898  17.399 194.049  0.00  0.00    +0.000 C 
ATOM     19  C38 UNK     0      32.605  16.475 194.459  0.00  0.00    +0.000 C 
ATOM     20  C41 UNK     0      33.680  17.074 193.579  0.00  0.00    +0.000 C 
BRANCH  16  21
ATOM     21  O10 UNK     0      34.687  14.855 195.930  0.00  0.00    +0.000 OA
ATOM     22  H77 UNK     0      35.353  14.850 195.222  0.00  0.00    +0.000 HD
ENDBRANCH  16  21
BRANCH  17  23
ATOM     23  O11 UNK     0      32.600  17.814 196.460  0.00  0.00    +0.000 OA
ATOM     24  H80 UNK     0      33.023  17.914 197.329  0.00  0.00    +0.000 HD
ENDBRANCH  17  23
BRANCH  19  25
ATOM     25  O13 UNK     0      32.414  15.122 194.048  0.00  0.00    +0.000 OA
ATOM     26  H82 UNK     0      32.491  14.561 194.839  0.00  0.00    +0.000 HD
ENDBRANCH  19  25
BRANCH  20  27
ATOM     27  C44 UNK     0      33.308  17.310 192.143  0.00  0.00    +0.000 C 
BRANCH  27  28
ATOM     28  O18 UNK     0      33.120  16.069 191.491  0.00  0.00    +0.000 OA
ATOM     29  H87 UNK     0      33.645  16.090 190.673  0.00  0.00    +0.000 HD
ENDBRANCH  27  28
ENDBRANCH  20  27
ENDBRANCH  13  15
ENDBRANCH   3  13
ENDBRANCH   1   7
BRANCH   1  31
ATOM     30  O3  UNK     0      42.383  15.736 199.256  0.00  0.00    +0.000 OA
ATOM     31  C22 UNK     0      41.272  17.929 199.190  0.00  0.00    +0.000 C 
ATOM     32  C26 UNK     0      41.415  18.037 200.713  0.00  0.00    +0.000 C 
ATOM     33  C27 UNK     0      42.292  16.977 198.543  0.00  0.00    +0.000 C 
ATOM     34  C29 UNK     0      41.617  16.667 201.365  0.00  0.00    +0.000 C 
ATOM     35  C30 UNK     0      42.698  15.862 200.641  0.00  0.00    +0.000 C 
BRANCH  32  36
ATOM     36  O7  UNK     0      42.528  18.862 201.041  0.00  0.00    +0.000 OA
ATOM     37  H73 UNK     0      42.534  18.977 202.006  0.00  0.00    +0.000 HD
ENDBRANCH  32  36
BRANCH  34  38
ATOM     38  O9  UNK     0      40.386  15.944 201.346  0.00  0.00    +0.000 OA
ATOM     39  H74 UNK     0      40.554  15.068 201.734  0.00  0.00    +0.000 HD
ENDBRANCH  34  38
BRANCH  35  40
ATOM     40  O4  UNK     0      42.784  14.575 201.249  0.00  0.00    +0.000 OA
BRANCH  40  42
ATOM     41  O8  UNK     0      42.122  11.244 199.817  0.00  0.00    +0.000 OA
ATOM     42  C32 UNK     0      42.826  13.540 200.270  0.00  0.00    +0.000 C 
ATOM     43  C34 UNK     0      44.289  13.136 200.069  0.00  0.00    +0.000 C 
ATOM     44  C36 UNK     0      41.978  12.344 200.722  0.00  0.00    +0.000 C 
ATOM     45  C40 UNK     0      44.385  11.883 199.201  0.00  0.00    +0.000 C 
ATOM     46  C42 UNK     0      43.467  10.771 199.710  0.00  0.00    +0.000 C 
BRANCH  43  47
ATOM     47  O12 UNK     0      44.964  14.212 199.413  0.00  0.00    +0.000 OA
ATOM     48  H81 UNK     0      45.700  13.841 198.898  0.00  0.00    +0.000 HD
ENDBRANCH  43  47
BRANCH  45  49
ATOM     49  O15 UNK     0      45.735  11.433 199.172  0.00  0.00    +0.000 OA
ATOM     50  H84 UNK     0      46.037  11.471 198.248  0.00  0.00    +0.000 HD
ENDBRANCH  45  49
BRANCH  46  51
ATOM     51  O16 UNK     0      43.932  10.189 200.926  0.00  0.00    +0.000 OA
ATOM     52  H85 UNK     0      44.076   9.243 200.755  0.00  0.00    +0.000 HD
ENDBRANCH  46  51
BRANCH  44  53
ATOM     53  C43 UNK     0      40.491  12.684 200.778  0.00  0.00    +0.000 C 
BRANCH  53  54
ATOM     54  O17 UNK     0      40.223  13.688 199.818  0.00  0.00    +0.000 OA
ATOM     55  H86 UNK     0      40.997  14.276 199.793  0.00  0.00    +0.000 HD
ENDBRANCH  53  54
ENDBRANCH  44  53
ENDBRANCH  40  42
ENDBRANCH  35  40
BRANCH  33  56
ATOM     56  C39 UNK     0      43.672  17.601 198.340  0.00  0.00    +0.000 C 
BRANCH  56  57
ATOM     57  O14 UNK     0      44.522  16.633 197.752  0.00  0.00    +0.000 OA
ATOM     58  H83 UNK     0      44.773  16.968 196.875  0.00  0.00    +0.000 HD
ENDBRANCH  56  57
ENDBRANCH  33  56
ENDBRANCH   1  31
TORSDOF 22
ENDMDL
MODEL 5
REMARK VINA RESULT:    -2.852      4.101      8.465
REMARK INTER + INTRA:          -9.470
REMARK INTER:                  -6.741
REMARK INTRA:                  -2.730
REMARK UNBOUND:                -3.701
REMARK  Name = HEMCA.pdb
REMARK  4 active torsions:
REMARK  status: ('A' for Active; 'I' for Inactive)
REMARK    1  A    between atoms: C5_5  and  O19_19
REMARK    2  A    between atoms: C6_6  and  O18_18
REMARK    3  A    between atoms: C7_7  and  O20_20
REMARK    4  A    between atoms: C17_17  and  O21_21
REMARK                            x       y       z     vdW  Elec       q    Type
REMARK                         _______ _______ _______ _____ _____    ______ ____
ROOT
ATOM      1  C1  UNK H   1      35.988  14.024 202.962  0.00  0.00    +0.000 A 
ATOM      2  C2  UNK H   1      36.416  12.937 203.603  0.00  0.00    +0.000 A 
ATOM      3  C3  UNK H   1      34.552  14.369 202.977  0.00  0.00    +0.000 A 
ATOM      4  C4  UNK H   1      35.463  12.079 204.310  0.00  0.00    +0.000 A 
ATOM      5  C5  UNK H   1      33.690  13.577 203.610  0.00  0.00    +0.000 A 
ATOM      6  C6  UNK H   1      34.165  12.379 204.305  0.00  0.00    +0.000 A 
ATOM      7  C7  UNK H   1      36.254  15.949 201.346  0.00  0.00    +0.000 C 
ATOM      8  C8  UNK H   1      36.866  14.905 202.185  0.00  0.00    +0.000 C 
ATOM      9  C9  UNK H   1      34.992  16.561 201.955  0.00  0.00    +0.000 C 
ATOM     10  O10 UNK H   1      34.094  15.532 202.358  0.00  0.00    +0.000 OA
ATOM     11  C11 UNK H   1      37.421  16.915 200.964  0.00  0.00    +0.000 C 
ATOM     12  C12 UNK H   1      38.561  15.956 201.152  0.00  0.00    +0.000 C 
ATOM     13  C13 UNK H   1      38.183  14.864 201.979  0.00  0.00    +0.000 C 
ATOM     14  C14 UNK H   1      39.812  16.139 200.746  0.00  0.00    +0.000 C 
ATOM     15  C15 UNK H   1      40.816  15.145 201.155  0.00  0.00    +0.000 C 
ATOM     16  C16 UNK H   1      39.172  13.913 202.482  0.00  0.00    +0.000 C 
ATOM     17  C17 UNK H   1      40.438  14.044 202.078  0.00  0.00    +0.000 C 
ATOM     18  O22 UNK H   1      41.987  15.258 200.777  0.00  0.00    +0.000 OA
ENDROOT
BRANCH   6  19
ATOM     19  O18 UNK H   1      33.261  11.561 204.974  0.00  0.00    +0.000 OA
ATOM     20  H9  UNK H   1      32.409  11.417 204.376  0.00  0.00    +0.000 HD
ENDBRANCH   6  19
BRANCH   5  21
ATOM     21  O19 UNK H   1      32.339  13.903 203.633  0.00  0.00    +0.000 OA
ATOM     22  H10 UNK H   1      31.818  13.201 204.215  0.00  0.00    +0.000 HD
ENDBRANCH   5  21
BRANCH   7  23
ATOM     23  O20 UNK H   1      35.882  15.235 200.165  0.00  0.00    +0.000 OA
ATOM     24  H11 UNK H   1      35.311  14.395 200.429  0.00  0.00    +0.000 HD
ENDBRANCH   7  23
BRANCH  17  25
ATOM     25  O21 UNK H   1      41.403  13.149 202.523  0.00  0.00    +0.000 OA
ATOM     26  H12 UNK H   1      42.358  13.564 202.383  0.00  0.00    +0.000 HD
ENDBRANCH  17  25
TORSDOF 4
REMARK  Name = Acarbose.pdb
REMARK  23 active torsions:
REMARK  status: ('A' for Active; 'I' for Inactive)
REMARK    1  A    between atoms: O1_1  and  C22_22
REMARK    2  A    between atoms: O1_1  and  C25_25
REMARK    3  A    between atoms: O4_4  and  C30_30
REMARK    4  A    between atoms: O4_4  and  C32_32
REMARK    5  A    between atoms: O5_5  and  C21_21
REMARK    6  A    between atoms: O6_6  and  C23_23
REMARK    7  A    between atoms: O7_7  and  C26_26
REMARK    8  A    between atoms: O9_9  and  C29_29
REMARK    9  A    between atoms: O10_10  and  C31_31
REMARK   10  A    between atoms: O11_11  and  C33_33
REMARK   11  A    between atoms: O12_12  and  C34_34
REMARK   12  A    between atoms: O13_13  and  C38_38
REMARK   13  A    between atoms: O14_14  and  C39_39
REMARK   14  A    between atoms: O15_15  and  C40_40
REMARK   15  A    between atoms: O16_16  and  C42_42
REMARK   16  A    between atoms: O17_17  and  C43_43
REMARK   17  A    between atoms: O18_18  and  C44_44
REMARK   18  A    between atoms: N19_19  and  C20_20
REMARK   19  A    between atoms: N19_19  and  C28_28
REMARK   20  A    between atoms: C24_24  and  C35_35
REMARK   21  A    between atoms: C27_27  and  C39_39
REMARK   22  A    between atoms: C36_36  and  C43_43
REMARK   23  A    between atoms: C41_41  and  C44_44
REMARK                            x       y       z     vdW  Elec       q    Type
REMARK                         _______ _______ _______ _____ _____    ______ ____
ROOT
ATOM      1  O1  UNK     0      38.442  13.020 196.949  0.00  0.00    +0.000 OA
ENDROOT
BRANCH   1   7
ATOM      2  O2  UNK     0      37.712  12.711 199.152  0.00  0.00    +0.000 OA
ATOM      3  C20 UNK     0      35.679  11.435 199.731  0.00  0.00    +0.000 C 
ATOM      4  C21 UNK     0      35.624  10.917 198.281  0.00  0.00    +0.000 C 
ATOM      5  C23 UNK     0      36.402  11.810 197.310  0.00  0.00    +0.000 C 
ATOM      6  C24 UNK     0      37.096  11.886 200.149  0.00  0.00    +0.000 C 
ATOM      7  C25 UNK     0      37.796  12.127 197.854  0.00  0.00    +0.000 C 
ATOM      8  C35 UNK     0      38.014  10.726 200.541  0.00  0.00    +0.000 C 
BRANCH   4   9
ATOM      9  O5  UNK     0      36.174   9.601 198.217  0.00  0.00    +0.000 OA
ATOM     10  H70 UNK     0      35.743   9.138 197.479  0.00  0.00    +0.000 HD
ENDBRANCH   4   9
BRANCH   5  11
ATOM     11  O6  UNK     0      35.698  13.036 197.109  0.00  0.00    +0.000 OA
ATOM     12  H72 UNK     0      36.251  13.600 196.540  0.00  0.00    +0.000 HD
ENDBRANCH   5  11
BRANCH   3  13
ATOM     13  N19 UNK     0      34.765  12.577 199.873  0.00  0.00    +0.000 NA
ATOM     14  H55 UNK     0      35.039  13.324 199.237  0.00  0.00    +0.000 HD
BRANCH  13  15
ATOM     15  C28 UNK     0      33.382  12.164 199.616  0.00  0.00    +0.000 C 
ATOM     16  C31 UNK     0      32.511  13.378 199.227  0.00  0.00    +0.000 C 
ATOM     17  C33 UNK     0      31.020  13.014 199.220  0.00  0.00    +0.000 C 
ATOM     18  C37 UNK     0      32.819  11.380 200.773  0.00  0.00    +0.000 C 
ATOM     19  C38 UNK     0      30.554  12.431 200.568  0.00  0.00    +0.000 C 
ATOM     20  C41 UNK     0      31.555  11.502 201.217  0.00  0.00    +0.000 C 
BRANCH  16  21
ATOM     21  O10 UNK     0      32.726  14.480 200.109  0.00  0.00    +0.000 OA
ATOM     22  H77 UNK     0      33.677  14.516 200.306  0.00  0.00    +0.000 HD
ENDBRANCH  16  21
BRANCH  17  23
ATOM     23  O11 UNK     0      30.768  12.047 198.201  0.00  0.00    +0.000 OA
ATOM     24  H80 UNK     0      30.268  11.317 198.605  0.00  0.00    +0.000 HD
ENDBRANCH  17  23
BRANCH  19  25
ATOM     25  O13 UNK     0      30.292  13.494 201.484  0.00  0.00    +0.000 OA
ATOM     26  H82 UNK     0      29.581  14.039 201.106  0.00  0.00    +0.000 HD
ENDBRANCH  19  25
BRANCH  20  27
ATOM     27  C44 UNK     0      31.055  10.697 202.383  0.00  0.00    +0.000 C 
BRANCH  27  28
ATOM     28  O18 UNK     0      30.746  11.561 203.459  0.00  0.00    +0.000 OA
ATOM     29  H87 UNK     0      31.360  11.350 204.184  0.00  0.00    +0.000 HD
ENDBRANCH  27  28
ENDBRANCH  20  27
ENDBRANCH  13  15
ENDBRANCH   3  13
ENDBRANCH   1   7
BRANCH   1  31
ATOM     30  O3  UNK     0      40.740  14.786 197.651  0.00  0.00    +0.000 OA
ATOM     31  C22 UNK     0      39.822  12.680 196.775  0.00  0.00    +0.000 C 
ATOM     32  C26 UNK     0      40.229  13.101 195.358  0.00  0.00    +0.000 C 
ATOM     33  C27 UNK     0      40.635  13.375 197.881  0.00  0.00    +0.000 C 
ATOM     34  C29 UNK     0      40.423  14.616 195.248  0.00  0.00    +0.000 C 
ATOM     35  C30 UNK     0      41.294  15.148 196.388  0.00  0.00    +0.000 C 
BRANCH  32  36
ATOM     36  O7  UNK     0      41.447  12.462 194.990  0.00  0.00    +0.000 OA
ATOM     37  H73 UNK     0      42.121  13.154 194.883  0.00  0.00    +0.000 HD
ENDBRANCH  32  36
BRANCH  34  38
ATOM     38  O9  UNK     0      39.151  15.263 195.275  0.00  0.00    +0.000 OA
ATOM     39  H74 UNK     0      38.531  14.713 194.766  0.00  0.00    +0.000 HD
ENDBRANCH  34  38
BRANCH  35  40
ATOM     40  O4  UNK     0      41.375  16.567 196.269  0.00  0.00    +0.000 OA
BRANCH  40  42
ATOM     41  O8  UNK     0      40.264  19.179 198.620  0.00  0.00    +0.000 OA
ATOM     42  C32 UNK     0      41.206  17.204 197.533  0.00  0.00    +0.000 C 
ATOM     43  C34 UNK     0      42.593  17.564 198.071  0.00  0.00    +0.000 C 
ATOM     44  C36 UNK     0      40.327  18.453 197.388  0.00  0.00    +0.000 C 
ATOM     45  C40 UNK     0      42.475  18.445 199.313  0.00  0.00    +0.000 C 
ATOM     46  C42 UNK     0      41.540  19.633 199.076  0.00  0.00    +0.000 C 
BRANCH  43  47
ATOM     47  O12 UNK     0      43.266  16.351 198.421  0.00  0.00    +0.000 OA
ATOM     48  H81 UNK     0      43.531  16.409 199.354  0.00  0.00    +0.000 HD
ENDBRANCH  43  47
BRANCH  45  49
ATOM     49  O15 UNK     0      43.769  18.904 199.689  0.00  0.00    +0.000 OA
ATOM     50  H84 UNK     0      44.262  18.139 200.033  0.00  0.00    +0.000 HD
ENDBRANCH  45  49
BRANCH  46  51
ATOM     51  O16 UNK     0      42.107  20.612 198.208  0.00  0.00    +0.000 OA
ATOM     52  H85 UNK     0      41.674  20.515 197.343  0.00  0.00    +0.000 HD
ENDBRANCH  46  51
BRANCH  44  53
ATOM     53  C43 UNK     0      38.892  18.102 197.002  0.00  0.00    +0.000 C 
BRANCH  53  54
ATOM     54  O17 UNK     0      38.571  16.842 197.561  0.00  0.00    +0.000 OA
ATOM     55  H86 UNK     0      37.783  16.966 198.117  0.00  0.00    +0.000 HD
ENDBRANCH  53  54
ENDBRANCH  44  53
ENDBRANCH  40  42
ENDBRANCH  35  40
BRANCH  33  56
ATOM     56  C39 UNK     0      42.007  12.749 198.120  0.00  0.00    +0.000 C 
BRANCH  56  57
ATOM     57  O14 UNK     0      42.142  12.474 199.503  0.00  0.00    +0.000 OA
ATOM     58  H83 UNK     0      43.087  12.545 199.718  0.00  0.00    +0.000 HD
ENDBRANCH  56  57
ENDBRANCH  33  56
ENDBRANCH   1  31
TORSDOF 22
ENDMDL
MODEL 6
REMARK VINA RESULT:    -2.850      4.318      8.808
REMARK INTER + INTRA:          -9.468
REMARK INTER:                  -6.487
REMARK INTRA:                  -2.980
REMARK UNBOUND:                -3.701
REMARK  Name = HEMCA.pdb
REMARK  4 active torsions:
REMARK  status: ('A' for Active; 'I' for Inactive)
REMARK    1  A    between atoms: C5_5  and  O19_19
REMARK    2  A    between atoms: C6_6  and  O18_18
REMARK    3  A    between atoms: C7_7  and  O20_20
REMARK    4  A    between atoms: C17_17  and  O21_21
REMARK                            x       y       z     vdW  Elec       q    Type
REMARK                         _______ _______ _______ _____ _____    ______ ____
ROOT
ATOM      1  C1  UNK H   1      43.537  13.040 200.591  0.00  0.00    +0.000 A 
ATOM      2  C2  UNK H   1      44.731  13.494 200.210  0.00  0.00    +0.000 A 
ATOM      3  C3  UNK H   1      43.216  11.606 200.445  0.00  0.00    +0.000 A 
ATOM      4  C4  UNK H   1      45.717  12.576 199.637  0.00  0.00    +0.000 A 
ATOM      5  C5  UNK H   1      44.112  10.779 199.910  0.00  0.00    +0.000 A 
ATOM      6  C6  UNK H   1      45.418  11.287 199.486  0.00  0.00    +0.000 A 
ATOM      7  C7  UNK H   1      41.130  13.326 201.306  0.00  0.00    +0.000 C 
ATOM      8  C8  UNK H   1      42.474  13.900 201.121  0.00  0.00    +0.000 C 
ATOM      9  C9  UNK H   1      41.145  11.862 201.743  0.00  0.00    +0.000 C 
ATOM     10  O10 UNK H   1      41.993  11.103 200.887  0.00  0.00    +0.000 OA
ATOM     11  C11 UNK H   1      40.361  14.348 202.204  0.00  0.00    +0.000 C 
ATOM     12  C12 UNK H   1      41.180  15.567 201.889  0.00  0.00    +0.000 C 
ATOM     13  C13 UNK H   1      42.453  15.210 201.367  0.00  0.00    +0.000 C 
ATOM     14  C14 UNK H   1      40.860  16.821 202.183  0.00  0.00    +0.000 C 
ATOM     15  C15 UNK H   1      41.865  17.863 201.921  0.00  0.00    +0.000 C 
ATOM     16  C16 UNK H   1      43.506  16.207 201.186  0.00  0.00    +0.000 C 
ATOM     17  C17 UNK H   1      43.219  17.484 201.444  0.00  0.00    +0.000 C 
ATOM     18  O22 UNK H   1      41.601  19.048 202.151  0.00  0.00    +0.000 OA
ENDROOT
BRANCH   6  19
ATOM     19  O18 UNK H   1      46.355  10.418 198.938  0.00  0.00    +0.000 OA
ATOM     20  H9  UNK H   1      45.863   9.683 198.371  0.00  0.00    +0.000 HD
ENDBRANCH   6  19
BRANCH   5  21
ATOM     21  O19 UNK H   1      43.816   9.428 199.779  0.00  0.00    +0.000 OA
ATOM     22  H10 UNK H   1      44.213   9.068 198.876  0.00  0.00    +0.000 HD
ENDBRANCH   5  21
BRANCH   7  23
ATOM     23  O20 UNK H   1      40.568  13.398 199.994  0.00  0.00    +0.000 OA
ATOM     24  H11 UNK H   1      40.903  14.271 199.517  0.00  0.00    +0.000 HD
ENDBRANCH   7  23
BRANCH  17  25
ATOM     25  O21 UNK H   1      44.191  18.462 201.267  0.00  0.00    +0.000 OA
ATOM     26  H12 UNK H   1      45.120  18.096 201.593  0.00  0.00    +0.000 HD
ENDBRANCH  17  25
TORSDOF 4
REMARK  Name = Acarbose.pdb
REMARK  23 active torsions:
REMARK  status: ('A' for Active; 'I' for Inactive)
REMARK    1  A    between atoms: O1_1  and  C22_22
REMARK    2  A    between atoms: O1_1  and  C25_25
REMARK    3  A    between atoms: O4_4  and  C30_30
REMARK    4  A    between atoms: O4_4  and  C32_32
REMARK    5  A    between atoms: O5_5  and  C21_21
REMARK    6  A    between atoms: O6_6  and  C23_23
REMARK    7  A    between atoms: O7_7  and  C26_26
REMARK    8  A    between atoms: O9_9  and  C29_29
REMARK    9  A    between atoms: O10_10  and  C31_31
REMARK   10  A    between atoms: O11_11  and  C33_33
REMARK   11  A    between atoms: O12_12  and  C34_34
REMARK   12  A    between atoms: O13_13  and  C38_38
REMARK   13  A    between atoms: O14_14  and  C39_39
REMARK   14  A    between atoms: O15_15  and  C40_40
REMARK   15  A    between atoms: O16_16  and  C42_42
REMARK   16  A    between atoms: O17_17  and  C43_43
REMARK   17  A    between atoms: O18_18  and  C44_44
REMARK   18  A    between atoms: N19_19  and  C20_20
REMARK   19  A    between atoms: N19_19  and  C28_28
REMARK   20  A    between atoms: C24_24  and  C35_35
REMARK   21  A    between atoms: C27_27  and  C39_39
REMARK   22  A    between atoms: C36_36  and  C43_43
REMARK   23  A    between atoms: C41_41  and  C44_44
REMARK                            x       y       z     vdW  Elec       q    Type
REMARK                         _______ _______ _______ _____ _____    ______ ____
ROOT
ATOM      1  O1  UNK     0      39.429  16.681 197.248  0.00  0.00    +0.000 OA
ENDROOT
BRANCH   1   7
ATOM      2  O2  UNK     0      41.368  15.578 197.959  0.00  0.00    +0.000 OA
ATOM      3  C20 UNK     0      42.450  13.781 196.657  0.00  0.00    +0.000 C 
ATOM      4  C21 UNK     0      41.553  14.146 195.459  0.00  0.00    +0.000 C 
ATOM      5  C23 UNK     0      40.294  14.909 195.881  0.00  0.00    +0.000 C 
ATOM      6  C24 UNK     0      42.620  14.950 197.652  0.00  0.00    +0.000 C 
ATOM      7  C25 UNK     0      40.642  16.058 196.829  0.00  0.00    +0.000 C 
ATOM      8  C35 UNK     0      43.655  15.984 197.206  0.00  0.00    +0.000 C 
BRANCH   4   9
ATOM      9  O5  UNK     0      42.282  14.959 194.540  0.00  0.00    +0.000 OA
ATOM     10  H70 UNK     0      43.229  14.793 194.689  0.00  0.00    +0.000 HD
ENDBRANCH   4   9
BRANCH   5  11
ATOM     11  O6  UNK     0      39.390  14.024 196.543  0.00  0.00    +0.000 OA
ATOM     12  H72 UNK     0      39.762  13.829 197.420  0.00  0.00    +0.000 HD
ENDBRANCH   5  11
BRANCH   3  13
ATOM     13  N19 UNK     0      41.863  12.640 197.373  0.00  0.00    +0.000 NA
ATOM     14  H55 UNK     0      40.925  12.876 197.695  0.00  0.00    +0.000 HD
BRANCH  13  15
ATOM     15  C28 UNK     0      41.828  11.454 196.512  0.00  0.00    +0.000 C 
ATOM     16  C31 UNK     0      40.793  10.431 197.029  0.00  0.00    +0.000 C 
ATOM     17  C33 UNK     0      40.934   9.084 196.307  0.00  0.00    +0.000 C 
ATOM     18  C37 UNK     0      43.203  10.864 196.334  0.00  0.00    +0.000 C 
ATOM     19  C38 UNK     0      42.358   8.507 196.418  0.00  0.00    +0.000 C 
ATOM     20  C41 UNK     0      43.454   9.543 196.303  0.00  0.00    +0.000 C 
BRANCH  16  21
ATOM     21  O10 UNK     0      40.916  10.230 198.437  0.00  0.00    +0.000 OA
ATOM     22  H77 UNK     0      40.041  10.380 198.832  0.00  0.00    +0.000 HD
ENDBRANCH  16  21
BRANCH  17  23
ATOM     23  O11 UNK     0      40.621   9.247 194.925  0.00  0.00    +0.000 OA
ATOM     24  H80 UNK     0      41.113   8.570 194.430  0.00  0.00    +0.000 HD
ENDBRANCH  17  23
BRANCH  19  25
ATOM     25  O13 UNK     0      42.512   7.852 197.677  0.00  0.00    +0.000 OA
ATOM     26  H82 UNK     0      41.906   7.091 197.688  0.00  0.00    +0.000 HD
ENDBRANCH  19  25
BRANCH  20  27
ATOM     27  C44 UNK     0      44.850   9.017 196.130  0.00  0.00    +0.000 C 
BRANCH  27  28
ATOM     28  O18 UNK     0      45.270   8.383 197.323  0.00  0.00    +0.000 OA
ATOM     29  H87 UNK     0      44.629   7.677 197.515  0.00  0.00    +0.000 HD
ENDBRANCH  27  28
ENDBRANCH  20  27
ENDBRANCH  13  15
ENDBRANCH   3  13
ENDBRANCH   1   7
BRANCH   1  31
ATOM     30  O3  UNK     0      39.130  18.535 199.564  0.00  0.00    +0.000 OA
ATOM     31  C22 UNK     0      39.524  18.108 197.175  0.00  0.00    +0.000 C 
ATOM     32  C26 UNK     0      38.125  18.650 196.857  0.00  0.00    +0.000 C 
ATOM     33  C27 UNK     0      40.094  18.624 198.507  0.00  0.00    +0.000 C 
ATOM     34  C29 UNK     0      37.207  18.613 198.081  0.00  0.00    +0.000 C 
ATOM     35  C30 UNK     0      37.898  19.207 199.310  0.00  0.00    +0.000 C 
BRANCH  32  36
ATOM     36  O7  UNK     0      38.215  19.995 196.400  0.00  0.00    +0.000 OA
ATOM     37  H73 UNK     0      37.465  20.154 195.803  0.00  0.00    +0.000 HD
ENDBRANCH  32  36
BRANCH  34  38
ATOM     38  O9  UNK     0      36.826  17.263 198.351  0.00  0.00    +0.000 OA
ATOM     39  H74 UNK     0      36.472  16.888 197.527  0.00  0.00    +0.000 HD
ENDBRANCH  34  38
BRANCH  35  40
ATOM     40  O4  UNK     0      37.022  19.076 200.427  0.00  0.00    +0.000 OA
BRANCH  40  42
ATOM     41  O8  UNK     0      37.486  17.216 203.577  0.00  0.00    +0.000 OA
ATOM     42  C32 UNK     0      37.717  18.608 201.581  0.00  0.00    +0.000 C 
ATOM     43  C34 UNK     0      38.049  19.818 202.457  0.00  0.00    +0.000 C 
ATOM     44  C36 UNK     0      36.860  17.589 202.344  0.00  0.00    +0.000 C 
ATOM     45  C40 UNK     0      38.595  19.367 203.811  0.00  0.00    +0.000 C 
ATOM     46  C42 UNK     0      37.692  18.318 204.463  0.00  0.00    +0.000 C 
BRANCH  43  47
ATOM     47  O12 UNK     0      39.045  20.596 201.788  0.00  0.00    +0.000 OA
ATOM     48  H81 UNK     0      39.670  19.987 201.359  0.00  0.00    +0.000 HD
ENDBRANCH  43  47
BRANCH  45  49
ATOM     49  O15 UNK     0      38.733  20.498 204.664  0.00  0.00    +0.000 OA
ATOM     50  H84 UNK     0      39.395  20.275 205.341  0.00  0.00    +0.000 HD
ENDBRANCH  45  49
BRANCH  46  51
ATOM     51  O16 UNK     0      36.463  18.869 204.934  0.00  0.00    +0.000 OA
ATOM     52  H85 UNK     0      36.377  19.754 204.543  0.00  0.00    +0.000 HD
ENDBRANCH  46  51
BRANCH  44  53
ATOM     53  C43 UNK     0      36.648  16.306 201.545  0.00  0.00    +0.000 C 
BRANCH  53  54
ATOM     54  O17 UNK     0      37.764  16.115 200.696  0.00  0.00    +0.000 OA
ATOM     55  H86 UNK     0      38.251  16.955 200.669  0.00  0.00    +0.000 HD
ENDBRANCH  53  54
ENDBRANCH  44  53
ENDBRANCH  40  42
ENDBRANCH  35  40
BRANCH  33  56
ATOM     56  C39 UNK     0      40.690  20.027 198.417  0.00  0.00    +0.000 C 
BRANCH  56  57
ATOM     57  O14 UNK     0      41.151  20.404 199.702  0.00  0.00    +0.000 OA
ATOM     58  H83 UNK     0      40.449  20.935 200.114  0.00  0.00    +0.000 HD
ENDBRANCH  56  57
ENDBRANCH  33  56
ENDBRANCH   1  31
TORSDOF 22
ENDMDL
MODEL 7
REMARK VINA RESULT:    -2.815      3.402      8.278
REMARK INTER + INTRA:          -9.395
REMARK INTER:                  -6.434
REMARK INTRA:                  -2.961
REMARK UNBOUND:                -3.701
REMARK  Name = HEMCA.pdb
REMARK  4 active torsions:
REMARK  status: ('A' for Active; 'I' for Inactive)
REMARK    1  A    between atoms: C5_5  and  O19_19
REMARK    2  A    between atoms: C6_6  and  O18_18
REMARK    3  A    between atoms: C7_7  and  O20_20
REMARK    4  A    between atoms: C17_17  and  O21_21
REMARK                            x       y       z     vdW  Elec       q    Type
REMARK                         _______ _______ _______ _____ _____    ______ ____
ROOT
ATOM      1  C1  UNK H   1      40.423  15.092 197.070  0.00  0.00    +0.000 A 
ATOM      2  C2  UNK H   1      39.485  15.363 197.977  0.00  0.00    +0.000 A 
ATOM      3  C3  UNK H   1      41.062  16.193 196.322  0.00  0.00    +0.000 A 
ATOM      4  C4  UNK H   1      39.081  16.749 198.222  0.00  0.00    +0.000 A 
ATOM      5  C5  UNK H   1      40.681  17.449 196.541  0.00  0.00    +0.000 A 
ATOM      6  C6  UNK H   1      39.643  17.740 197.532  0.00  0.00    +0.000 A 
ATOM      7  C7  UNK H   1      41.729  13.541 195.561  0.00  0.00    +0.000 C 
ATOM      8  C8  UNK H   1      40.845  13.731 196.723  0.00  0.00    +0.000 C 
ATOM      9  C9  UNK H   1      42.743  14.670 195.373  0.00  0.00    +0.000 C 
ATOM     10  O10 UNK H   1      42.084  15.931 195.409  0.00  0.00    +0.000 OA
ATOM     11  C11 UNK H   1      42.276  12.083 195.686  0.00  0.00    +0.000 C 
ATOM     12  C12 UNK H   1      41.179  11.517 196.542  0.00  0.00    +0.000 C 
ATOM     13  C13 UNK H   1      40.463  12.549 197.208  0.00  0.00    +0.000 C 
ATOM     14  C14 UNK H   1      40.968  10.231 196.792  0.00  0.00    +0.000 C 
ATOM     15  C15 UNK H   1      39.929   9.887 197.775  0.00  0.00    +0.000 C 
ATOM     16  C16 UNK H   1      39.494  12.244 198.258  0.00  0.00    +0.000 C 
ATOM     17  C17 UNK H   1      39.231  10.963 198.524  0.00  0.00    +0.000 C 
ATOM     18  O22 UNK H   1      39.676   8.702 198.019  0.00  0.00    +0.000 OA
ENDROOT
BRANCH   6  19
ATOM     19  O18 UNK H   1      39.255  19.055 197.764  0.00  0.00    +0.000 OA
ATOM     20  H9  UNK H   1      39.656  19.382 198.679  0.00  0.00    +0.000 HD
ENDBRANCH   6  19
BRANCH   5  21
ATOM     21  O19 UNK H   1      41.287  18.488 195.845  0.00  0.00    +0.000 OA
ATOM     22  H10 UNK H   1      41.930  19.013 196.487  0.00  0.00    +0.000 HD
ENDBRANCH   5  21
BRANCH   7  23
ATOM     23  O20 UNK H   1      40.819  13.567 194.459  0.00  0.00    +0.000 OA
ATOM     24  H11 UNK H   1      40.139  12.772 194.548  0.00  0.00    +0.000 HD
ENDBRANCH   7  23
BRANCH  17  25
ATOM     25  O21 UNK H   1      38.302  10.636 199.505  0.00  0.00    +0.000 OA
ATOM     26  H12 UNK H   1      38.629   9.784 200.026  0.00  0.00    +0.000 HD
ENDBRANCH  17  25
TORSDOF 4
REMARK  Name = Acarbose.pdb
REMARK  23 active torsions:
REMARK  status: ('A' for Active; 'I' for Inactive)
REMARK    1  A    between atoms: O1_1  and  C22_22
REMARK    2  A    between atoms: O1_1  and  C25_25
REMARK    3  A    between atoms: O4_4  and  C30_30
REMARK    4  A    between atoms: O4_4  and  C32_32
REMARK    5  A    between atoms: O5_5  and  C21_21
REMARK    6  A    between atoms: O6_6  and  C23_23
REMARK    7  A    between atoms: O7_7  and  C26_26
REMARK    8  A    between atoms: O9_9  and  C29_29
REMARK    9  A    between atoms: O10_10  and  C31_31
REMARK   10  A    between atoms: O11_11  and  C33_33
REMARK   11  A    between atoms: O12_12  and  C34_34
REMARK   12  A    between atoms: O13_13  and  C38_38
REMARK   13  A    between atoms: O14_14  and  C39_39
REMARK   14  A    between atoms: O15_15  and  C40_40
REMARK   15  A    between atoms: O16_16  and  C42_42
REMARK   16  A    between atoms: O17_17  and  C43_43
REMARK   17  A    between atoms: O18_18  and  C44_44
REMARK   18  A    between atoms: N19_19  and  C20_20
REMARK   19  A    between atoms: N19_19  and  C28_28
REMARK   20  A    between atoms: C24_24  and  C35_35
REMARK   21  A    between atoms: C27_27  and  C39_39
REMARK   22  A    between atoms: C36_36  and  C43_43
REMARK   23  A    between atoms: C41_41  and  C44_44
REMARK                            x       y       z     vdW  Elec       q    Type
REMARK                         _______ _______ _______ _____ _____    ______ ____
ROOT
ATOM      1  O1  UNK     0      37.116  15.614 193.695  0.00  0.00    +0.000 OA
ENDROOT
BRANCH   1   7
ATOM      2  O2  UNK     0      37.827  13.642 194.736  0.00  0.00    +0.000 OA
ATOM      3  C20 UNK     0      36.295  11.791 195.306  0.00  0.00    +0.000 C 
ATOM      4  C21 UNK     0      35.207  12.463 194.446  0.00  0.00    +0.000 C 
ATOM      5  C23 UNK     0      35.466  13.958 194.236  0.00  0.00    +0.000 C 
ATOM      6  C24 UNK     0      37.722  12.222 194.904  0.00  0.00    +0.000 C 
ATOM      7  C25 UNK     0      36.912  14.207 193.800  0.00  0.00    +0.000 C 
ATOM      8  C35 UNK     0      38.257  11.485 193.675  0.00  0.00    +0.000 C 
BRANCH   4   9
ATOM      9  O5  UNK     0      35.148  11.834 193.166  0.00  0.00    +0.000 OA
ATOM     10  H70 UNK     0      35.214  10.874 193.307  0.00  0.00    +0.000 HD
ENDBRANCH   4   9
BRANCH   5  11
ATOM     11  O6  UNK     0      35.224  14.668 195.450  0.00  0.00    +0.000 OA
ATOM     12  H72 UNK     0      35.202  15.616 195.234  0.00  0.00    +0.000 HD
ENDBRANCH   5  11
BRANCH   3  13
ATOM     13  N19 UNK     0      36.081  12.142 196.718  0.00  0.00    +0.000 NA
ATOM     14  H55 UNK     0      35.706  13.086 196.789  0.00  0.00    +0.000 HD
BRANCH  13  15
ATOM     15  C28 UNK     0      35.179  11.179 197.356  0.00  0.00    +0.000 C 
ATOM     16  C31 UNK     0      34.735  11.683 198.747  0.00  0.00    +0.000 C 
ATOM     17  C33 UNK     0      34.017  10.579 199.535  0.00  0.00    +0.000 C 
ATOM     18  C37 UNK     0      35.784   9.800 197.393  0.00  0.00    +0.000 C 
ATOM     19  C38 UNK     0      34.875   9.307 199.676  0.00  0.00    +0.000 C 
ATOM     20  C41 UNK     0      35.665   8.956 198.435  0.00  0.00    +0.000 C 
BRANCH  16  21
ATOM     21  O10 UNK     0      35.844  12.163 199.506  0.00  0.00    +0.000 OA
ATOM     22  H77 UNK     0      36.094  11.465 200.134  0.00  0.00    +0.000 HD
ENDBRANCH  16  21
BRANCH  17  23
ATOM     23  O11 UNK     0      32.802  10.230 198.873  0.00  0.00    +0.000 OA
ATOM     24  H80 UNK     0      32.390  11.054 198.561  0.00  0.00    +0.000 HD
ENDBRANCH  17  23
BRANCH  19  25
ATOM     25  O13 UNK     0      35.804   9.473 200.748  0.00  0.00    +0.000 OA
ATOM     26  H82 UNK     0      35.328   9.890 201.486  0.00  0.00    +0.000 HD
ENDBRANCH  19  25
BRANCH  20  27
ATOM     27  C44 UNK     0      36.300   7.595 198.414  0.00  0.00    +0.000 C 
BRANCH  27  28
ATOM     28  O18 UNK     0      37.444   7.592 199.246  0.00  0.00    +0.000 OA
ATOM     29  H87 UNK     0      37.301   6.913 199.929  0.00  0.00    +0.000 HD
ENDBRANCH  27  28
ENDBRANCH  20  27
ENDBRANCH  13  15
ENDBRANCH   3  13
ENDBRANCH   1   7
BRANCH   1  31
ATOM     30  O3  UNK     0      38.890  18.011 193.652  0.00  0.00    +0.000 OA
ATOM     31  C22 UNK     0      38.044  15.930 192.652  0.00  0.00    +0.000 C 
ATOM     32  C26 UNK     0      37.294  16.752 191.596  0.00  0.00    +0.000 C 
ATOM     33  C27 UNK     0      39.238  16.673 193.275  0.00  0.00    +0.000 C 
ATOM     34  C29 UNK     0      37.070  18.196 192.053  0.00  0.00    +0.000 C 
ATOM     35  C30 UNK     0      38.359  18.812 192.599  0.00  0.00    +0.000 C 
BRANCH  32  36
ATOM     36  O7  UNK     0      38.033  16.773 190.379  0.00  0.00    +0.000 OA
ATOM     37  H73 UNK     0      38.515  15.932 190.313  0.00  0.00    +0.000 HD
ENDBRANCH  32  36
BRANCH  34  38
ATOM     38  O9  UNK     0      36.060  18.225 193.062  0.00  0.00    +0.000 OA
ATOM     39  H74 UNK     0      35.350  18.811 192.750  0.00  0.00    +0.000 HD
ENDBRANCH  34  38
BRANCH  35  40
ATOM     40  O4  UNK     0      38.066  20.125 193.072  0.00  0.00    +0.000 OA
BRANCH  40  42
ATOM     41  O8  UNK     0      38.455  21.539 196.454  0.00  0.00    +0.000 OA
ATOM     42  C32 UNK     0      38.714  20.385 194.316  0.00  0.00    +0.000 C 
ATOM     43  C34 UNK     0      39.983  21.190 194.029  0.00  0.00    +0.000 C 
ATOM     44  C36 UNK     0      37.773  21.150 195.257  0.00  0.00    +0.000 C 
ATOM     45  C40 UNK     0      40.605  21.692 195.331  0.00  0.00    +0.000 C 
ATOM     46  C42 UNK     0      39.574  22.395 196.216  0.00  0.00    +0.000 C 
BRANCH  43  47
ATOM     47  O12 UNK     0      40.916  20.333 193.366  0.00  0.00    +0.000 OA
ATOM     48  H81 UNK     0      40.977  19.502 193.868  0.00  0.00    +0.000 HD
ENDBRANCH  43  47
BRANCH  45  49
ATOM     49  O15 UNK     0      41.680  22.575 195.030  0.00  0.00    +0.000 OA
ATOM     50  H84 UNK     0      41.582  23.361 195.595  0.00  0.00    +0.000 HD
ENDBRANCH  45  49
BRANCH  46  51
ATOM     51  O16 UNK     0      39.182  23.665 195.697  0.00  0.00    +0.000 OA
ATOM     52  H85 UNK     0      39.243  23.610 194.729  0.00  0.00    +0.000 HD
ENDBRANCH  46  51
BRANCH  44  53
ATOM     53  C43 UNK     0      36.575  20.304 195.680  0.00  0.00    +0.000 C 
BRANCH  53  54
ATOM     54  O17 UNK     0      36.975  18.947 195.726  0.00  0.00    +0.000 OA
ATOM     55  H86 UNK     0      36.846  18.640 196.639  0.00  0.00    +0.000 HD
ENDBRANCH  53  54
ENDBRANCH  44  53
ENDBRANCH  40  42
ENDBRANCH  35  40
BRANCH  33  56
ATOM     56  C39 UNK     0      40.495  16.652 192.408  0.00  0.00    +0.000 C 
BRANCH  56  57
ATOM     57  O14 UNK     0      41.494  17.430 193.043  0.00  0.00    +0.000 OA
ATOM     58  H83 UNK     0      42.222  16.829 193.273  0.00  0.00    +0.000 HD
ENDBRANCH  56  57
ENDBRANCH  33  56
ENDBRANCH   1  31
TORSDOF 22
ENDMDL
MODEL 8
REMARK VINA RESULT:    -2.814      3.346      6.726
REMARK INTER + INTRA:          -9.394
REMARK INTER:                  -6.450
REMARK INTRA:                  -2.945
REMARK UNBOUND:                -3.701
REMARK  Name = HEMCA.pdb
REMARK  4 active torsions:
REMARK  status: ('A' for Active; 'I' for Inactive)
REMARK    1  A    between atoms: C5_5  and  O19_19
REMARK    2  A    between atoms: C6_6  and  O18_18
REMARK    3  A    between atoms: C7_7  and  O20_20
REMARK    4  A    between atoms: C17_17  and  O21_21
REMARK                            x       y       z     vdW  Elec       q    Type
REMARK                         _______ _______ _______ _____ _____    ______ ____
ROOT
ATOM      1  C1  UNK H   1      39.824  13.471 197.953  0.00  0.00    +0.000 A 
ATOM      2  C2  UNK H   1      41.033  13.495 197.393  0.00  0.00    +0.000 A 
ATOM      3  C3  UNK H   1      38.619  13.460 197.100  0.00  0.00    +0.000 A 
ATOM      4  C4  UNK H   1      41.166  13.525 195.936  0.00  0.00    +0.000 A 
ATOM      5  C5  UNK H   1      38.747  13.500 195.776  0.00  0.00    +0.000 A 
ATOM      6  C6  UNK H   1      40.078  13.537 195.167  0.00  0.00    +0.000 A 
ATOM      7  C7  UNK H   1      38.228  13.683 199.902  0.00  0.00    +0.000 C 
ATOM      8  C8  UNK H   1      39.601  13.497 199.403  0.00  0.00    +0.000 C 
ATOM      9  C9  UNK H   1      37.165  13.014 199.032  0.00  0.00    +0.000 C 
ATOM     10  O10 UNK H   1      37.347  13.379 197.668  0.00  0.00    +0.000 OA
ATOM     11  C11 UNK H   1      38.279  13.299 201.415  0.00  0.00    +0.000 C 
ATOM     12  C12 UNK H   1      39.746  13.527 201.644  0.00  0.00    +0.000 C 
ATOM     13  C13 UNK H   1      40.465  13.511 200.418  0.00  0.00    +0.000 C 
ATOM     14  C14 UNK H   1      40.353  13.588 202.822  0.00  0.00    +0.000 C 
ATOM     15  C15 UNK H   1      41.822  13.673 202.832  0.00  0.00    +0.000 C 
ATOM     16  C16 UNK H   1      41.926  13.496 200.395  0.00  0.00    +0.000 C 
ATOM     17  C17 UNK H   1      42.578  13.583 201.557  0.00  0.00    +0.000 C 
ATOM     18  O22 UNK H   1      42.429  13.761 203.904  0.00  0.00    +0.000 OA
ENDROOT
BRANCH   6  19
ATOM     19  O18 UNK H   1      40.207  13.568 193.783  0.00  0.00    +0.000 OA
ATOM     20  H9  UNK H   1      40.553  12.636 193.442  0.00  0.00    +0.000 HD
ENDBRANCH   6  19
BRANCH   5  21
ATOM     21  O19 UNK H   1      37.615  13.482 194.969  0.00  0.00    +0.000 OA
ATOM     22  H10 UNK H   1      37.896  13.297 193.975  0.00  0.00    +0.000 HD
ENDBRANCH   5  21
BRANCH   7  23
ATOM     23  O20 UNK H   1      38.048  15.098 199.823  0.00  0.00    +0.000 OA
ATOM     24  H11 UNK H   1      37.204  15.376 200.384  0.00  0.00    +0.000 HD
ENDBRANCH   7  23
BRANCH  17  25
ATOM     25  O21 UNK H   1      43.968  13.589 201.572  0.00  0.00    +0.000 OA
ATOM     26  H12 UNK H   1      44.307  13.691 202.561  0.00  0.00    +0.000 HD
ENDBRANCH  17  25
TORSDOF 4
REMARK  Name = Acarbose.pdb
REMARK  23 active torsions:
REMARK  status: ('A' for Active; 'I' for Inactive)
REMARK    1  A    between atoms: O1_1  and  C22_22
REMARK    2  A    between atoms: O1_1  and  C25_25
REMARK    3  A    between atoms: O4_4  and  C30_30
REMARK    4  A    between atoms: O4_4  and  C32_32
REMARK    5  A    between atoms: O5_5  and  C21_21
REMARK    6  A    between atoms: O6_6  and  C23_23
REMARK    7  A    between atoms: O7_7  and  C26_26
REMARK    8  A    between atoms: O9_9  and  C29_29
REMARK    9  A    between atoms: O10_10  and  C31_31
REMARK   10  A    between atoms: O11_11  and  C33_33
REMARK   11  A    between atoms: O12_12  and  C34_34
REMARK   12  A    between atoms: O13_13  and  C38_38
REMARK   13  A    between atoms: O14_14  and  C39_39
REMARK   14  A    between atoms: O15_15  and  C40_40
REMARK   15  A    between atoms: O16_16  and  C42_42
REMARK   16  A    between atoms: O17_17  and  C43_43
REMARK   17  A    between atoms: O18_18  and  C44_44
REMARK   18  A    between atoms: N19_19  and  C20_20
REMARK   19  A    between atoms: N19_19  and  C28_28
REMARK   20  A    between atoms: C24_24  and  C35_35
REMARK   21  A    between atoms: C27_27  and  C39_39
REMARK   22  A    between atoms: C36_36  and  C43_43
REMARK   23  A    between atoms: C41_41  and  C44_44
REMARK                            x       y       z     vdW  Elec       q    Type
REMARK                         _______ _______ _______ _____ _____    ______ ____
ROOT
ATOM      1  O1  UNK     0      39.537  18.099 197.192  0.00  0.00    +0.000 OA
ENDROOT
BRANCH   1   7
ATOM      2  O2  UNK     0      40.252  17.023 199.145  0.00  0.00    +0.000 OA
ATOM      3  C20 UNK     0      42.085  17.879 200.561  0.00  0.00    +0.000 C 
ATOM      4  C21 UNK     0      42.038  19.203 199.774  0.00  0.00    +0.000 C 
ATOM      5  C23 UNK     0      41.384  19.044 198.399  0.00  0.00    +0.000 C 
ATOM      6  C24 UNK     0      40.757  17.094 200.484  0.00  0.00    +0.000 C 
ATOM      7  C25 UNK     0      40.060  18.284 198.506  0.00  0.00    +0.000 C 
ATOM      8  C35 UNK     0      39.686  17.613 201.445  0.00  0.00    +0.000 C 
BRANCH   4   9
ATOM      9  O5  UNK     0      41.299  20.176 200.512  0.00  0.00    +0.000 OA
ATOM     10  H70 UNK     0      41.394  21.027 200.051  0.00  0.00    +0.000 HD
ENDBRANCH   4   9
BRANCH   5  11
ATOM     11  O6  UNK     0      42.256  18.327 197.526  0.00  0.00    +0.000 OA
ATOM     12  H72 UNK     0      43.169  18.547 197.780  0.00  0.00    +0.000 HD
ENDBRANCH   5  11
BRANCH   3  13
ATOM     13  N19 UNK     0      43.159  17.033 200.023  0.00  0.00    +0.000 NA
ATOM     14  H55 UNK     0      43.263  17.196 199.022  0.00  0.00    +0.000 HD
BRANCH  13  15
ATOM     15  C28 UNK     0      44.421  17.297 200.720  0.00  0.00    +0.000 C 
ATOM     16  C31 UNK     0      45.604  16.633 199.983  0.00  0.00    +0.000 C 
ATOM     17  C33 UNK     0      46.881  16.669 200.835  0.00  0.00    +0.000 C 
ATOM     18  C37 UNK     0      44.337  16.907 202.173  0.00  0.00    +0.000 C 
ATOM     19  C38 UNK     0      46.680  16.019 202.217  0.00  0.00    +0.000 C 
ATOM     20  C41 UNK     0      45.340  16.321 202.852  0.00  0.00    +0.000 C 
BRANCH  16  21
ATOM     21  O10 UNK     0      45.308  15.283 199.629  0.00  0.00    +0.000 OA
ATOM     22  H77 UNK     0      45.587  14.718 200.368  0.00  0.00    +0.000 HD
ENDBRANCH  16  21
BRANCH  17  23
ATOM     23  O11 UNK     0      47.289  18.022 201.029  0.00  0.00    +0.000 OA
ATOM     24  H80 UNK     0      47.880  18.261 200.294  0.00  0.00    +0.000 HD
ENDBRANCH  17  23
BRANCH  19  25
ATOM     25  O13 UNK     0      46.794  14.601 202.101  0.00  0.00    +0.000 OA
ATOM     26  H82 UNK     0      46.979  14.397 201.168  0.00  0.00    +0.000 HD
ENDBRANCH  19  25
BRANCH  20  27
ATOM     27  C44 UNK     0      45.192  15.949 204.299  0.00  0.00    +0.000 C 
BRANCH  27  28
ATOM     28  O18 UNK     0      45.038  14.548 204.416  0.00  0.00    +0.000 OA
ATOM     29  H87 UNK     0      44.088  14.355 204.331  0.00  0.00    +0.000 HD
ENDBRANCH  27  28
ENDBRANCH  20  27
ENDBRANCH  13  15
ENDBRANCH   3  13
ENDBRANCH   1   7
BRANCH   1  31
ATOM     30  O3  UNK     0      37.781  16.743 195.200  0.00  0.00    +0.000 OA
ATOM     31  C22 UNK     0      38.107  18.153 197.188  0.00  0.00    +0.000 C 
ATOM     32  C26 UNK     0      37.691  19.384 196.373  0.00  0.00    +0.000 C 
ATOM     33  C27 UNK     0      37.574  16.828 196.616  0.00  0.00    +0.000 C 
ATOM     34  C29 UNK     0      37.846  19.149 194.868  0.00  0.00    +0.000 C 
ATOM     35  C30 UNK     0      37.222  17.817 194.447  0.00  0.00    +0.000 C 
BRANCH  32  36
ATOM     36  O7  UNK     0      36.331  19.710 196.641  0.00  0.00    +0.000 OA
ATOM     37  H73 UNK     0      35.803  18.905 196.504  0.00  0.00    +0.000 HD
ENDBRANCH  32  36
BRANCH  34  38
ATOM     38  O9  UNK     0      39.232  19.159 194.524  0.00  0.00    +0.000 OA
ATOM     39  H74 UNK     0      39.673  19.803 195.104  0.00  0.00    +0.000 HD
ENDBRANCH  34  38
BRANCH  35  40
ATOM     40  O4  UNK     0      37.465  17.626 193.054  0.00  0.00    +0.000 OA
BRANCH  40  42
ATOM     41  O8  UNK     0      39.338  14.939 191.363  0.00  0.00    +0.000 OA
ATOM     42  C32 UNK     0      37.871  16.287 192.777  0.00  0.00    +0.000 C 
ATOM     43  C34 UNK     0      36.653  15.523 192.251  0.00  0.00    +0.000 C 
ATOM     44  C36 UNK     0      39.015  16.278 191.755  0.00  0.00    +0.000 C 
ATOM     45  C40 UNK     0      37.068  14.150 191.725  0.00  0.00    +0.000 C 
ATOM     46  C42 UNK     0      38.246  14.248 190.754  0.00  0.00    +0.000 C 
BRANCH  43  47
ATOM     47  O12 UNK     0      35.732  15.351 193.330  0.00  0.00    +0.000 OA
ATOM     48  H81 UNK     0      35.473  14.415 193.364  0.00  0.00    +0.000 HD
ENDBRANCH  43  47
BRANCH  45  49
ATOM     49  O15 UNK     0      35.955  13.532 191.090  0.00  0.00    +0.000 OA
ATOM     50  H84 UNK     0      35.521  12.961 191.747  0.00  0.00    +0.000 HD
ENDBRANCH  45  49
BRANCH  46  51
ATOM     51  O16 UNK     0      37.876  14.821 189.501  0.00  0.00    +0.000 OA
ATOM     52  H85 UNK     0      37.047  15.308 189.641  0.00  0.00    +0.000 HD
ENDBRANCH  46  51
BRANCH  44  53
ATOM     53  C43 UNK     0      40.291  16.899 192.319  0.00  0.00    +0.000 C 
BRANCH  53  54
ATOM     54  O17 UNK     0      40.349  16.627 193.707  0.00  0.00    +0.000 OA
ATOM     55  H86 UNK     0      41.283  16.684 193.972  0.00  0.00    +0.000 HD
ENDBRANCH  53  54
ENDBRANCH  44  53
ENDBRANCH  40  42
ENDBRANCH  35  40
BRANCH  33  56
ATOM     56  C39 UNK     0      36.119  16.542 196.981  0.00  0.00    +0.000 C 
BRANCH  56  57
ATOM     57  O14 UNK     0      35.716  15.352 196.329  0.00  0.00    +0.000 OA
ATOM     58  H83 UNK     0      35.016  14.951 196.870  0.00  0.00    +0.000 HD
ENDBRANCH  56  57
ENDBRANCH  33  56
ENDBRANCH   1  31
TORSDOF 22
ENDMDL
MODEL 9
REMARK VINA RESULT:    -2.814      4.283      7.412
REMARK INTER + INTRA:          -9.394
REMARK INTER:                  -6.449
REMARK INTRA:                  -2.945
REMARK UNBOUND:                -3.701
REMARK  Name = HEMCA.pdb
REMARK  4 active torsions:
REMARK  status: ('A' for Active; 'I' for Inactive)
REMARK    1  A    between atoms: C5_5  and  O19_19
REMARK    2  A    between atoms: C6_6  and  O18_18
REMARK    3  A    between atoms: C7_7  and  O20_20
REMARK    4  A    between atoms: C17_17  and  O21_21
REMARK                            x       y       z     vdW  Elec       q    Type
REMARK                         _______ _______ _______ _____ _____    ______ ____
ROOT
ATOM      1  C1  UNK H   1      41.572  16.767 194.016  0.00  0.00    +0.000 A 
ATOM      2  C2  UNK H   1      40.844  17.185 195.051  0.00  0.00    +0.000 A 
ATOM      3  C3  UNK H   1      40.981  16.742 192.664  0.00  0.00    +0.000 A 
ATOM      4  C4  UNK H   1      39.456  17.604 194.849  0.00  0.00    +0.000 A 
ATOM      5  C5  UNK H   1      39.714  17.112 192.490  0.00  0.00    +0.000 A 
ATOM      6  C6  UNK H   1      38.916  17.560 193.632  0.00  0.00    +0.000 A 
ATOM      7  C7  UNK H   1      43.580  15.644 192.970  0.00  0.00    +0.000 C 
ATOM      8  C8  UNK H   1      42.950  16.278 194.140  0.00  0.00    +0.000 C 
ATOM      9  C9  UNK H   1      43.164  16.268 191.638  0.00  0.00    +0.000 C 
ATOM     10  O10 UNK H   1      41.745  16.360 191.561  0.00  0.00    +0.000 OA
ATOM     11  C11 UNK H   1      45.106  15.581 193.301  0.00  0.00    +0.000 C 
ATOM     12  C12 UNK H   1      45.001  15.644 194.798  0.00  0.00    +0.000 C 
ATOM     13  C13 UNK H   1      43.747  16.176 195.203  0.00  0.00    +0.000 C 
ATOM     14  C14 UNK H   1      45.978  15.392 195.661  0.00  0.00    +0.000 C 
ATOM     15  C15 UNK H   1      45.716  15.651 197.085  0.00  0.00    +0.000 C 
ATOM     16  C16 UNK H   1      43.489  16.535 196.596  0.00  0.00    +0.000 C 
ATOM     17  C17 UNK H   1      44.434  16.274 197.502  0.00  0.00    +0.000 C 
ATOM     18  O22 UNK H   1      46.585  15.404 197.928  0.00  0.00    +0.000 OA
ENDROOT
BRANCH   6  19
ATOM     19  O18 UNK H   1      37.597  17.956 193.444  0.00  0.00    +0.000 OA
ATOM     20  H9  UNK H   1      37.576  18.890 192.962  0.00  0.00    +0.000 HD
ENDBRANCH   6  19
BRANCH   5  21
ATOM     21  O19 UNK H   1      39.157  17.096 191.217  0.00  0.00    +0.000 OA
ATOM     22  H10 UNK H   1      38.504  16.279 191.129  0.00  0.00    +0.000 HD
ENDBRANCH   5  21
BRANCH   7  23
ATOM     23  O20 UNK H   1      43.074  14.308 193.017  0.00  0.00    +0.000 OA
ATOM     24  H11 UNK H   1      42.730  14.098 193.987  0.00  0.00    +0.000 HD
ENDBRANCH   7  23
BRANCH  17  25
ATOM     25  O21 UNK H   1      44.217  16.586 198.839  0.00  0.00    +0.000 OA
ATOM     26  H12 UNK H   1      43.597  17.431 198.905  0.00  0.00    +0.000 HD
ENDBRANCH  17  25
TORSDOF 4
REMARK  Name = Acarbose.pdb
REMARK  23 active torsions:
REMARK  status: ('A' for Active; 'I' for Inactive)
REMARK    1  A    between atoms: O1_1  and  C22_22
REMARK    2  A    between atoms: O1_1  and  C25_25
REMARK    3  A    between atoms: O4_4  and  C30_30
REMARK    4  A    between atoms: O4_4  and  C32_32
REMARK    5  A    between atoms: O5_5  and  C21_21
REMARK    6  A    between atoms: O6_6  and  C23_23
REMARK    7  A    between atoms: O7_7  and  C26_26
REMARK    8  A    between atoms: O9_9  and  C29_29
REMARK    9  A    between atoms: O10_10  and  C31_31
REMARK   10  A    between atoms: O11_11  and  C33_33
REMARK   11  A    between atoms: O12_12  and  C34_34
REMARK   12  A    between atoms: O13_13  and  C38_38
REMARK   13  A    between atoms: O14_14  and  C39_39
REMARK   14  A    between atoms: O15_15  and  C40_40
REMARK   15  A    between atoms: O16_16  and  C42_42
REMARK   16  A    between atoms: O17_17  and  C43_43
REMARK   17  A    between atoms: O18_18  and  C44_44
REMARK   18  A    between atoms: N19_19  and  C20_20
REMARK   19  A    between atoms: N19_19  and  C28_28
REMARK   20  A    between atoms: C24_24  and  C35_35
REMARK   21  A    between atoms: C27_27  and  C39_39
REMARK   22  A    between atoms: C36_36  and  C43_43
REMARK   23  A    between atoms: C41_41  and  C44_44
REMARK                            x       y       z     vdW  Elec       q    Type
REMARK                         _______ _______ _______ _____ _____    ______ ____
ROOT
ATOM      1  O1  UNK     0      39.397  12.617 194.352  0.00  0.00    +0.000 OA
ENDROOT
BRANCH   1   7
ATOM      2  O2  UNK     0      41.447  13.227 195.304  0.00  0.00    +0.000 OA
ATOM      3  C20 UNK     0      42.182  12.455 197.531  0.00  0.00    +0.000 C 
ATOM      4  C21 UNK     0      41.025  11.438 197.530  0.00  0.00    +0.000 C 
ATOM      5  C23 UNK     0      39.905  11.825 196.559  0.00  0.00    +0.000 C 
ATOM      6  C24 UNK     0      42.587  12.897 196.108  0.00  0.00    +0.000 C 
ATOM      7  C25 UNK     0      40.473  12.193 195.187  0.00  0.00    +0.000 C 
ATOM      8  C35 UNK     0      43.489  11.891 195.391  0.00  0.00    +0.000 C 
BRANCH   4   9
ATOM      9  O5  UNK     0      41.515  10.150 197.157  0.00  0.00    +0.000 OA
ATOM     10  H70 UNK     0      41.306   9.536 197.882  0.00  0.00    +0.000 HD
ENDBRANCH   4   9
BRANCH   5  11
ATOM     11  O6  UNK     0      39.183  12.944 197.073  0.00  0.00    +0.000 OA
ATOM     12  H72 UNK     0      38.397  13.066 196.514  0.00  0.00    +0.000 HD
ENDBRANCH   5  11
BRANCH   3  13
ATOM     13  N19 UNK     0      41.780  13.645 198.294  0.00  0.00    +0.000 NA
ATOM     14  H55 UNK     0      40.779  13.804 198.189  0.00  0.00    +0.000 HD
BRANCH  13  15
ATOM     15  C28 UNK     0      42.132  13.494 199.708  0.00  0.00    +0.000 C 
ATOM     16  C31 UNK     0      41.469  14.599 200.559  0.00  0.00    +0.000 C 
ATOM     17  C33 UNK     0      42.038  14.619 201.985  0.00  0.00    +0.000 C 
ATOM     18  C37 UNK     0      43.625  13.419 199.897  0.00  0.00    +0.000 C 
ATOM     19  C38 UNK     0      43.570  14.779 202.001  0.00  0.00    +0.000 C 
ATOM     20  C41 UNK     0      44.283  14.003 200.916  0.00  0.00    +0.000 C 
BRANCH  16  21
ATOM     21  O10 UNK     0      41.634  15.886 199.964  0.00  0.00    +0.000 OA
ATOM     22  H77 UNK     0      41.290  16.545 200.591  0.00  0.00    +0.000 HD
ENDBRANCH  16  21
BRANCH  17  23
ATOM     23  O11 UNK     0      41.706  13.402 202.650  0.00  0.00    +0.000 OA
ATOM     24  H80 UNK     0      41.900  12.670 202.040  0.00  0.00    +0.000 HD
ENDBRANCH  17  23
BRANCH  19  25
ATOM     25  O13 UNK     0      43.910  16.156 201.843  0.00  0.00    +0.000 OA
ATOM     26  H82 UNK     0      43.812  16.584 202.711  0.00  0.00    +0.000 HD
ENDBRANCH  19  25
BRANCH  20  27
ATOM     27  C44 UNK     0      45.776  13.898 201.044  0.00  0.00    +0.000 C 
BRANCH  27  28
ATOM     28  O18 UNK     0      46.372  15.126 200.672  0.00  0.00    +0.000 OA
ATOM     29  H87 UNK     0      45.919  15.434 199.868  0.00  0.00    +0.000 HD
ENDBRANCH  27  28
ENDBRANCH  20  27
ENDBRANCH  13  15
ENDBRANCH   3  13
ENDBRANCH   1   7
BRANCH   1  31
ATOM     30  O3  UNK     0      38.278  14.037 191.980  0.00  0.00    +0.000 OA
ATOM     31  C22 UNK     0      39.613  12.235 192.989  0.00  0.00    +0.000 C 
ATOM     32  C26 UNK     0      38.521  11.226 192.612  0.00  0.00    +0.000 C 
ATOM     33  C27 UNK     0      39.602  13.506 192.123  0.00  0.00    +0.000 C 
ATOM     34  C29 UNK     0      37.171  11.910 192.375  0.00  0.00    +0.000 C 
ATOM     35  C30 UNK     0      37.318  13.123 191.454  0.00  0.00    +0.000 C 
BRANCH  32  36
ATOM     36  O7  UNK     0      38.889  10.530 191.426  0.00  0.00    +0.000 OA
ATOM     37  H73 UNK     0      39.821  10.270 191.515  0.00  0.00    +0.000 HD
ENDBRANCH  32  36
BRANCH  34  38
ATOM     38  O9  UNK     0      36.619  12.322 193.626  0.00  0.00    +0.000 OA
ATOM     39  H74 UNK     0      35.840  11.767 193.799  0.00  0.00    +0.000 HD
ENDBRANCH  34  38
BRANCH  35  40
ATOM     40  O4  UNK     0      36.045  13.754 191.334  0.00  0.00    +0.000 OA
BRANCH  40  42
ATOM     41  O8  UNK     0      35.039  17.170 192.284  0.00  0.00    +0.000 OA
ATOM     42  C32 UNK     0      36.157  15.172 191.432  0.00  0.00    +0.000 C 
ATOM     43  C34 UNK     0      36.119  15.749 190.015  0.00  0.00    +0.000 C 
ATOM     44  C36 UNK     0      35.020  15.739 192.292  0.00  0.00    +0.000 C 
ATOM     45  C40 UNK     0      36.010  17.272 190.058  0.00  0.00    +0.000 C 
ATOM     46  C42 UNK     0      34.879  17.732 190.980  0.00  0.00    +0.000 C 
BRANCH  43  47
ATOM     47  O12 UNK     0      37.332  15.386 189.351  0.00  0.00    +0.000 OA
ATOM     48  H81 UNK     0      37.104  14.861 188.565  0.00  0.00    +0.000 HD
ENDBRANCH  43  47
BRANCH  45  49
ATOM     49  O15 UNK     0      35.805  17.768 188.740  0.00  0.00    +0.000 OA
ATOM     50  H84 UNK     0      34.891  17.551 188.484  0.00  0.00    +0.000 HD
ENDBRANCH  45  49
BRANCH  46  51
ATOM     51  O16 UNK     0      33.587  17.471 190.434  0.00  0.00    +0.000 OA
ATOM     52  H85 UNK     0      33.211  16.726 190.932  0.00  0.00    +0.000 HD
ENDBRANCH  46  51
BRANCH  44  53
ATOM     53  C43 UNK     0      35.130  15.299 193.750  0.00  0.00    +0.000 C 
BRANCH  53  54
ATOM     54  O17 UNK     0      36.501  15.169 194.078  0.00  0.00    +0.000 OA
ATOM     55  H86 UNK     0      36.978  14.990 193.251  0.00  0.00    +0.000 HD
ENDBRANCH  53  54
ENDBRANCH  44  53
ENDBRANCH  40  42
ENDBRANCH  35  40
BRANCH  33  56
ATOM     56  C39 UNK     0      40.276  13.328 190.764  0.00  0.00    +0.000 C 
BRANCH  56  57
ATOM     57  O14 UNK     0      40.123  14.526 190.025  0.00  0.00    +0.000 OA
ATOM     58  H83 UNK     0      40.427  15.254 190.593  0.00  0.00    +0.000 HD
ENDBRANCH  56  57
ENDBRANCH  33  56
ENDBRANCH   1  31
TORSDOF 22
ENDMDL
