MODEL 1
REMARK VINA RESULT:    -3.326      0.000      0.000
REMARK INTER + INTRA:          -7.648
REMARK INTER:                  -5.465
REMARK INTRA:                  -2.183
REMARK UNBOUND:                -2.183
REMARK  2 active torsions:
REMARK  status: ('A' for Active; 'I' for Inactive)
REMARK    1  A    between atoms: C9_9  and  C13_13 
REMARK    2  A    between atoms: C10_10  and  C14_14 
ROOT
HETATM    1  O1          0      34.857  16.191 200.949  1.00  0.00    -0.380 OA
HETATM    2  O2          0      38.494  15.275 202.889  1.00  0.00    -0.380 OA
HETATM    3  C7          0      36.099  15.784 202.849  1.00  0.00     0.052 C 
HETATM    4  C8          0      36.891  16.774 202.181  1.00  0.00     0.052 C 
HETATM    5  C9          0      35.384  15.033 201.689  1.00  0.00     0.161 C 
HETATM    6  C10         0      38.116  15.975 201.652  1.00  0.00     0.161 C 
HETATM    7  C11         0      35.836  17.361 201.194  1.00  0.00     0.176 C 
HETATM    8  C12         0      37.195  15.074 203.702  1.00  0.00     0.176 C 
ENDROOT
BRANCH   5   9
HETATM    9  C13         0      34.273  14.075 202.226  1.00  0.00    -0.026 A 
HETATM   10  C15         0      33.037  14.576 202.447  1.00  0.00     0.049 A 
HETATM   11  C19         0      32.037  13.680 203.059  1.00  0.00     0.105 A 
HETATM   12  O3          0      30.756  13.984 203.362  1.00  0.00    -0.323 OA
HETATM   13  C23         0      32.308  12.477 203.405  1.00  0.00     0.105 A 
HETATM   14  C25         0      30.145  12.826 203.979  1.00  0.00     0.352 A 
HETATM   15  O5          0      31.234  11.878 203.962  1.00  0.00    -0.323 OA
HETATM   16  C21         0      33.622  11.887 203.196  1.00  0.00     0.040 A 
HETATM   17  C17         0      34.563  12.657 202.625  1.00  0.00     0.012 A 
ENDBRANCH   5   9
BRANCH   6  18
HETATM   18  C14         0      39.229  16.927 201.107  1.00  0.00    -0.026 A 
HETATM   19  C18         0      40.484  17.216 201.879  1.00  0.00     0.012 A 
HETATM   20  C22         0      41.481  17.941 201.345  1.00  0.00     0.040 A 
HETATM   21  C24         0      41.294  18.442 199.989  1.00  0.00     0.105 A 
HETATM   22  O6          0      42.170  19.178 199.275  1.00  0.00    -0.323 OA
HETATM   23  C20         0      40.226  18.216 199.321  1.00  0.00     0.105 A 
HETATM   24  C26         0      41.586  19.449 197.984  1.00  0.00     0.352 A 
HETATM   25  O4          0      40.305  18.785 198.096  1.00  0.00    -0.323 OA
HETATM   26  C16         0      39.109  17.411 199.851  1.00  0.00     0.049 A 
ENDBRANCH   6  18
TORSDOF 2
REMARK  10 active torsions:
REMARK  status: ('A' for Active; 'I' for Inactive)
REMARK    1  A    between atoms: O1_1  and  C12_12 
REMARK    2  A    between atoms: O2_2  and  C13_13 
REMARK    3  A    between atoms: O3_3  and  C18_18 
REMARK    4  A    between atoms: O4_4  and  C19_19 
REMARK    5  A    between atoms: C7_7  and  C16_16 
REMARK    6  A    between atoms: C8_8  and  C17_17 
REMARK    7  A    between atoms: C9_9  and  C21_21 
REMARK    8  A    between atoms: C9_9  and  C20_20 
REMARK    9  A    between atoms: C20_20  and  C24_24 
REMARK   10  A    between atoms: C21_21  and  C25_25 
ROOT
HETATM    1  O1          0      40.529  15.719 195.755  1.00  0.00    -0.353 OA
HETATM    2  C26         0      39.202  16.159 196.050  1.00  0.00     0.210 C 
ENDROOT
BRANCH   1   3
HETATM    3  C12         0      41.291  15.526 196.927  1.00  0.00     0.102 A 
HETATM    4  C18         0      42.490  16.097 197.004  1.00  0.00     0.099 A 
HETATM    5  C22         0      43.308  15.915 198.213  1.00  0.00     0.040 A 
HETATM    6  C14         0      42.859  15.182 199.239  1.00  0.00     0.014 A 
HETATM    7  C7          0      41.530  14.538 199.180  1.00  0.00    -0.033 A 
HETATM    8  C10         0      40.785  14.705 198.076  1.00  0.00     0.051 A 
BRANCH   4   9
HETATM    9  O3          0      42.959  16.865 195.925  1.00  0.00    -0.358 OA
HETATM   10  H40         0      42.687  17.811 196.035  1.00  0.00     0.217 HD
ENDBRANCH   4   9
BRANCH   7  11
HETATM   11  C16         0      41.001  13.694 200.349  1.00  0.00     0.015 C 
HETATM   12  C24         0      41.579  13.648 201.572  1.00  0.00     0.051 C 
BRANCH  12  13
HETATM   13  C20         0      40.999  12.779 202.706  1.00  0.00     0.156 C 
HETATM   14  O5          0      40.915  13.259 203.843  1.00  0.00    -0.293 OA
BRANCH  13  15
HETATM   15  C9          0      40.513  11.298 202.445  1.00  0.00     0.165 C 
BRANCH  15  16
HETATM   16  C21         0      38.947  11.084 202.500  1.00  0.00     0.156 C 
HETATM   17  O6          0      38.476  10.191 203.214  1.00  0.00    -0.293 OA
BRANCH  16  18
HETATM   18  C25         0      37.984  11.967 201.680  1.00  0.00     0.051 C 
HETATM   19  C17         0      37.844  11.805 200.344  1.00  0.00     0.015 C 
BRANCH  19  20
HETATM   20  C8          0      36.904  12.650 199.471  1.00  0.00    -0.033 A 
HETATM   21  C15         0      37.341  13.941 198.901  1.00  0.00     0.014 A 
HETATM   22  C23         0      36.512  14.668 198.141  1.00  0.00     0.040 A 
HETATM   23  C19         0      35.146  14.198 197.857  1.00  0.00     0.099 A 
HETATM   24  C13         0      34.731  13.039 198.361  1.00  0.00     0.102 A 
HETATM   25  C11         0      35.657  12.223 199.212  1.00  0.00     0.051 A 
BRANCH  23  26
HETATM   26  O4          0      34.273  14.958 197.061  1.00  0.00    -0.358 OA
HETATM   27  H41         0      34.277  15.903 197.357  1.00  0.00     0.217 HD
ENDBRANCH  23  26
BRANCH  24  28
HETATM   28  O2          0      33.415  12.615 198.070  1.00  0.00    -0.353 OA
HETATM   29  C27         0      32.594  12.597 199.241  1.00  0.00     0.210 C 
ENDBRANCH  24  28
ENDBRANCH  19  20
ENDBRANCH  16  18
ENDBRANCH  15  16
ENDBRANCH  13  15
ENDBRANCH  12  13
ENDBRANCH   7  11
ENDBRANCH   1   3
TORSDOF 10
ENDMDL
MODEL 2
REMARK VINA RESULT:    -3.321      5.168      8.842
REMARK INTER + INTRA:          -7.639
REMARK INTER:                  -5.505
REMARK INTRA:                  -2.134
REMARK UNBOUND:                -2.183
REMARK  2 active torsions:
REMARK  status: ('A' for Active; 'I' for Inactive)
REMARK    1  A    between atoms: C9_9  and  C13_13 
REMARK    2  A    between atoms: C10_10  and  C14_14 
ROOT
HETATM    1  O1          0      39.336  15.372 196.768  1.00  0.00    -0.380 OA
HETATM    2  O2          0      42.556  14.021 194.395  1.00  0.00    -0.380 OA
HETATM    3  C7          0      41.461  15.609 195.903  1.00  0.00     0.052 C 
HETATM    4  C8          0      40.688  15.332 194.728  1.00  0.00     0.052 C 
HETATM    5  C9          0      40.692  14.870 197.036  1.00  0.00     0.161 C 
HETATM    6  C10         0      41.093  13.878 194.350  1.00  0.00     0.161 C 
HETATM    7  C11         0      39.254  15.650 195.250  1.00  0.00     0.176 C 
HETATM    8  C12         0      42.866  15.116 195.440  1.00  0.00     0.176 C 
ENDROOT
BRANCH   5   9
HETATM    9  C13         0      41.237  15.260 198.447  1.00  0.00    -0.026 A 
HETATM   10  C15         0      42.112  14.427 199.056  1.00  0.00     0.049 A 
HETATM   11  C19         0      42.526  14.760 200.432  1.00  0.00     0.105 A 
HETATM   12  O3          0      43.382  14.063 201.211  1.00  0.00    -0.323 OA
HETATM   13  C23         0      42.069  15.776 201.063  1.00  0.00     0.105 A 
HETATM   14  C25         0      43.474  14.725 202.495  1.00  0.00     0.352 A 
HETATM   15  O5          0      42.582  15.846 202.310  1.00  0.00    -0.323 OA
HETATM   16  C21         0      41.122  16.703 200.461  1.00  0.00     0.040 A 
HETATM   17  C17         0      40.727  16.453 199.201  1.00  0.00     0.012 A 
ENDBRANCH   5   9
BRANCH   6  18
HETATM   18  C14         0      40.545  13.478 192.943  1.00  0.00    -0.026 A 
HETATM   19  C18         0      41.442  13.329 191.748  1.00  0.00     0.012 A 
HETATM   20  C22         0      40.972  12.870 190.576  1.00  0.00     0.040 A 
HETATM   21  C24         0      39.557  12.529 190.508  1.00  0.00     0.105 A 
HETATM   22  O6          0      38.896  12.048 189.435  1.00  0.00    -0.323 OA
HETATM   23  C20         0      38.775  12.661 191.512  1.00  0.00     0.105 A 
HETATM   24  C26         0      37.517  11.843 189.808  1.00  0.00     0.352 A 
HETATM   25  O4          0      37.520  12.274 191.190  1.00  0.00    -0.323 OA
HETATM   26  C16         0      39.241  13.142 192.827  1.00  0.00     0.049 A 
ENDBRANCH   6  18
TORSDOF 2
REMARK  10 active torsions:
REMARK  status: ('A' for Active; 'I' for Inactive)
REMARK    1  A    between atoms: O1_1  and  C12_12 
REMARK    2  A    between atoms: O2_2  and  C13_13 
REMARK    3  A    between atoms: O3_3  and  C18_18 
REMARK    4  A    between atoms: O4_4  and  C19_19 
REMARK    5  A    between atoms: C7_7  and  C16_16 
REMARK    6  A    between atoms: C8_8  and  C17_17 
REMARK    7  A    between atoms: C9_9  and  C21_21 
REMARK    8  A    between atoms: C9_9  and  C20_20 
REMARK    9  A    between atoms: C20_20  and  C24_24 
REMARK   10  A    between atoms: C21_21  and  C25_25 
ROOT
HETATM    1  O1          0      37.390   8.873 192.474  1.00  0.00    -0.353 OA
HETATM    2  C26         0      37.071   9.695 193.599  1.00  0.00     0.210 C 
ENDROOT
BRANCH   1   3
HETATM    3  C12         0      38.737   9.025 192.080  1.00  0.00     0.102 A 
HETATM    4  C18         0      39.065   8.736 190.823  1.00  0.00     0.099 A 
HETATM    5  C22         0      40.461   8.883 190.381  1.00  0.00     0.040 A 
HETATM    6  C14         0      41.406   9.307 191.230  1.00  0.00     0.014 A 
HETATM    7  C7          0      41.068   9.634 192.631  1.00  0.00    -0.033 A 
HETATM    8  C10         0      39.794   9.499 193.032  1.00  0.00     0.051 A 
BRANCH   4   9
HETATM    9  O3          0      38.071   8.292 189.935  1.00  0.00    -0.358 OA
HETATM   10  H40         0      37.236   8.806 190.072  1.00  0.00     0.217 HD
ENDBRANCH   4   9
BRANCH   7  11
HETATM   11  C16         0      42.142  10.121 193.616  1.00  0.00     0.015 C 
HETATM   12  C24         0      43.394  10.483 193.253  1.00  0.00     0.051 C 
BRANCH  12  13
HETATM   13  C20         0      44.427  10.963 194.292  1.00  0.00     0.156 C 
HETATM   14  O5          0      45.045  12.013 194.079  1.00  0.00    -0.293 OA
BRANCH  13  15
HETATM   15  C9          0      44.711  10.144 195.614  1.00  0.00     0.165 C 
BRANCH  15  16
HETATM   16  C21         0      44.207  10.828 196.949  1.00  0.00     0.156 C 
HETATM   17  O6          0      44.947  10.853 197.940  1.00  0.00    -0.293 OA
BRANCH  16  18
HETATM   18  C25         0      42.808  11.468 197.048  1.00  0.00     0.051 C 
HETATM   19  C17         0      41.701  10.716 197.255  1.00  0.00     0.015 C 
BRANCH  19  20
HETATM   20  C8          0      40.281  11.292 197.364  1.00  0.00    -0.033 A 
HETATM   21  C15         0      39.436  11.476 196.166  1.00  0.00     0.014 A 
HETATM   22  C23         0      38.199  11.978 196.274  1.00  0.00     0.040 A 
HETATM   23  C19         0      37.654  12.358 197.587  1.00  0.00     0.099 A 
HETATM   24  C13         0      38.397  12.201 198.680  1.00  0.00     0.102 A 
HETATM   25  C11         0      39.782  11.639 198.562  1.00  0.00     0.051 A 
BRANCH  23  26
HETATM   26  O4          0      36.357  12.885 197.705  1.00  0.00    -0.358 OA
HETATM   27  H41         0      36.170  13.501 196.953  1.00  0.00     0.217 HD
ENDBRANCH  23  26
BRANCH  24  28
HETATM   28  O2          0      37.846  12.574 199.925  1.00  0.00    -0.353 OA
HETATM   29  C27         0      38.539  13.685 200.499  1.00  0.00     0.210 C 
ENDBRANCH  24  28
ENDBRANCH  19  20
ENDBRANCH  16  18
ENDBRANCH  15  16
ENDBRANCH  13  15
ENDBRANCH  12  13
ENDBRANCH   7  11
ENDBRANCH   1   3
TORSDOF 10
ENDMDL
MODEL 3
REMARK VINA RESULT:    -3.320      4.700     10.361
REMARK INTER + INTRA:          -7.637
REMARK INTER:                  -5.258
REMARK INTRA:                  -2.379
REMARK UNBOUND:                -2.183
REMARK  2 active torsions:
REMARK  status: ('A' for Active; 'I' for Inactive)
REMARK    1  A    between atoms: C9_9  and  C13_13 
REMARK    2  A    between atoms: C10_10  and  C14_14 
ROOT
HETATM    1  O1          0      40.226  18.474 195.714  1.00  0.00    -0.380 OA
HETATM    2  O2          0      38.116  18.079 192.078  1.00  0.00    -0.380 OA
HETATM    3  C7          0      39.632  19.230 193.618  1.00  0.00     0.052 C 
HETATM    4  C8          0      38.356  18.941 194.204  1.00  0.00     0.052 C 
HETATM    5  C9          0      40.597  18.227 194.312  1.00  0.00     0.161 C 
HETATM    6  C10         0      37.893  17.651 193.467  1.00  0.00     0.161 C 
HETATM    7  C11         0      38.741  18.902 195.715  1.00  0.00     0.176 C 
HETATM    8  C12         0      39.287  19.087 192.104  1.00  0.00     0.176 C 
ENDROOT
BRANCH   5   9
HETATM    9  C13         0      42.091  18.554 193.993  1.00  0.00    -0.026 A 
HETATM   10  C15         0      43.036  17.644 194.318  1.00  0.00     0.049 A 
HETATM   11  C19         0      44.447  18.022 194.109  1.00  0.00     0.105 A 
HETATM   12  O3          0      45.536  17.264 194.370  1.00  0.00    -0.323 OA
HETATM   13  C23         0      44.796  19.172 193.667  1.00  0.00     0.105 A 
HETATM   14  C25         0      46.717  18.037 194.052  1.00  0.00     0.352 A 
HETATM   15  O5          0      46.139  19.277 193.591  1.00  0.00    -0.323 OA
HETATM   16  C21         0      43.822  20.192 193.307  1.00  0.00     0.040 A 
HETATM   17  C17         0      42.522  19.890 193.461  1.00  0.00     0.012 A 
ENDBRANCH   5   9
BRANCH   6  18
HETATM   18  C14         0      36.402  17.313 193.787  1.00  0.00    -0.026 A 
HETATM   19  C18         0      35.265  17.862 192.975  1.00  0.00     0.012 A 
HETATM   20  C22         0      33.998  17.467 193.190  1.00  0.00     0.040 A 
HETATM   21  C24         0      33.772  16.490 194.247  1.00  0.00     0.105 A 
HETATM   22  O6          0      32.585  15.964 194.615  1.00  0.00    -0.323 OA
HETATM   23  C20         0      34.726  16.021 194.958  1.00  0.00     0.105 A 
HETATM   24  C26         0      32.818  15.035 195.695  1.00  0.00     0.352 A 
HETATM   25  O4          0      34.252  15.134 195.863  1.00  0.00    -0.323 OA
HETATM   26  C16         0      36.136  16.405 194.753  1.00  0.00     0.049 A 
ENDBRANCH   6  18
TORSDOF 2
REMARK  10 active torsions:
REMARK  status: ('A' for Active; 'I' for Inactive)
REMARK    1  A    between atoms: O1_1  and  C12_12 
REMARK    2  A    between atoms: O2_2  and  C13_13 
REMARK    3  A    between atoms: O3_3  and  C18_18 
REMARK    4  A    between atoms: O4_4  and  C19_19 
REMARK    5  A    between atoms: C7_7  and  C16_16 
REMARK    6  A    between atoms: C8_8  and  C17_17 
REMARK    7  A    between atoms: C9_9  and  C21_21 
REMARK    8  A    between atoms: C9_9  and  C20_20 
REMARK    9  A    between atoms: C20_20  and  C24_24 
REMARK   10  A    between atoms: C21_21  and  C25_25 
ROOT
HETATM    1  O1          0      34.811  12.988 193.163  1.00  0.00    -0.353 OA
HETATM    2  C26         0      35.406  11.740 193.522  1.00  0.00     0.210 C 
ENDROOT
BRANCH   1   3
HETATM    3  C12         0      35.626  13.722 192.274  1.00  0.00     0.102 A 
HETATM    4  C18         0      35.037  14.464 191.341  1.00  0.00     0.099 A 
HETATM    5  C22         0      35.858  15.239 190.399  1.00  0.00     0.040 A 
HETATM    6  C14         0      37.195  15.209 190.472  1.00  0.00     0.014 A 
HETATM    7  C7          0      37.875  14.393 191.499  1.00  0.00    -0.033 A 
HETATM    8  C10         0      37.123  13.685 192.358  1.00  0.00     0.051 A 
BRANCH   4   9
HETATM    9  O3          0      33.633  14.493 191.267  1.00  0.00    -0.358 OA
HETATM   10  H40         0      33.290  13.621 190.949  1.00  0.00     0.217 HD
ENDBRANCH   4   9
BRANCH   7  11
HETATM   11  C16         0      39.407  14.347 191.595  1.00  0.00     0.015 C 
HETATM   12  C24         0      40.203  15.439 191.521  1.00  0.00     0.051 C 
BRANCH  12  13
HETATM   13  C20         0      41.738  15.326 191.623  1.00  0.00     0.156 C 
HETATM   14  O5          0      42.434  16.262 191.213  1.00  0.00    -0.293 OA
BRANCH  13  15
HETATM   15  C9          0      42.433  14.046 192.237  1.00  0.00     0.165 C 
BRANCH  15  16
HETATM   16  C21         0      42.509  14.015 193.816  1.00  0.00     0.156 C 
HETATM   17  O6          0      43.590  14.221 194.380  1.00  0.00    -0.293 OA
BRANCH  16  18
HETATM   18  C25         0      41.262  13.732 194.677  1.00  0.00     0.051 C 
HETATM   19  C17         0      40.470  14.735 195.124  1.00  0.00     0.015 C 
BRANCH  19  20
HETATM   20  C8          0      39.215  14.520 195.984  1.00  0.00    -0.033 A 
HETATM   21  C15         0      38.297  13.390 195.730  1.00  0.00     0.014 A 
HETATM   22  C23         0      37.207  13.214 196.489  1.00  0.00     0.040 A 
HETATM   23  C19         0      36.899  14.140 197.589  1.00  0.00     0.099 A 
HETATM   24  C13         0      37.711  15.165 197.835  1.00  0.00     0.102 A 
HETATM   25  C11         0      38.932  15.365 196.989  1.00  0.00     0.051 A 
BRANCH  23  26
HETATM   26  O4          0      35.755  13.959 198.386  1.00  0.00    -0.358 OA
HETATM   27  H41         0      35.849  13.140 198.934  1.00  0.00     0.217 HD
ENDBRANCH  23  26
BRANCH  24  28
HETATM   28  O2          0      37.388  16.036 198.898  1.00  0.00    -0.353 OA
HETATM   29  C27         0      36.829  17.264 198.425  1.00  0.00     0.210 C 
ENDBRANCH  24  28
ENDBRANCH  19  20
ENDBRANCH  16  18
ENDBRANCH  15  16
ENDBRANCH  13  15
ENDBRANCH  12  13
ENDBRANCH   7  11
ENDBRANCH   1   3
TORSDOF 10
ENDMDL
MODEL 4
REMARK VINA RESULT:    -3.307      4.216      8.337
REMARK INTER + INTRA:          -7.616
REMARK INTER:                  -5.496
REMARK INTRA:                  -2.120
REMARK UNBOUND:                -2.183
REMARK  2 active torsions:
REMARK  status: ('A' for Active; 'I' for Inactive)
REMARK    1  A    between atoms: C9_9  and  C13_13 
REMARK    2  A    between atoms: C10_10  and  C14_14 
ROOT
HETATM    1  O1          0      34.553  20.200 196.212  1.00  0.00    -0.380 OA
HETATM    2  O2          0      37.738  18.093 198.011  1.00  0.00    -0.380 OA
HETATM    3  C7          0      35.522  18.255 196.985  1.00  0.00     0.052 C 
HETATM    4  C8          0      35.683  19.136 198.104  1.00  0.00     0.052 C 
HETATM    5  C9          0      35.539  19.209 195.755  1.00  0.00     0.161 C 
HETATM    6  C10         0      37.205  19.460 198.104  1.00  0.00     0.161 C 
HETATM    7  C11         0      34.634  20.235 197.754  1.00  0.00     0.176 C 
HETATM    8  C12         0      36.694  17.258 197.237  1.00  0.00     0.176 C 
ENDROOT
BRANCH   5   9
HETATM    9  C13         0      35.121  18.465 194.447  1.00  0.00    -0.026 A 
HETATM   10  C15         0      35.952  17.526 193.942  1.00  0.00     0.049 A 
HETATM   11  C19         0      35.590  16.918 192.648  1.00  0.00     0.105 A 
HETATM   12  O3          0      36.281  15.971 191.976  1.00  0.00    -0.323 OA
HETATM   13  C23         0      34.548  17.266 191.990  1.00  0.00     0.105 A 
HETATM   14  C25         0      35.586  15.690 190.738  1.00  0.00     0.352 A 
HETATM   15  O5          0      34.454  16.582 190.830  1.00  0.00    -0.323 OA
HETATM   16  C21         0      33.621  18.275 192.481  1.00  0.00     0.040 A 
HETATM   17  C17         0      33.898  18.847 193.665  1.00  0.00     0.012 A 
ENDBRANCH   5   9
BRANCH   6  18
HETATM   18  C14         0      37.630  20.210 199.407  1.00  0.00    -0.026 A 
HETATM   19  C18         0      36.760  20.247 200.630  1.00  0.00     0.012 A 
HETATM   20  C22         0      37.192  20.795 201.779  1.00  0.00     0.040 A 
HETATM   21  C24         0      38.536  21.357 201.789  1.00  0.00     0.105 A 
HETATM   22  O6          0      39.155  21.942 202.835  1.00  0.00    -0.323 OA
HETATM   23  C20         0      39.287  21.345 200.753  1.00  0.00     0.105 A 
HETATM   24  C26         0      40.473  22.349 202.410  1.00  0.00     0.352 A 
HETATM   25  O4          0      40.480  21.924 201.026  1.00  0.00    -0.323 OA
HETATM   26  C16         0      38.871  20.741 199.474  1.00  0.00     0.049 A 
ENDBRANCH   6  18
TORSDOF 2
REMARK  10 active torsions:
REMARK  status: ('A' for Active; 'I' for Inactive)
REMARK    1  A    between atoms: O1_1  and  C12_12 
REMARK    2  A    between atoms: O2_2  and  C13_13 
REMARK    3  A    between atoms: O3_3  and  C18_18 
REMARK    4  A    between atoms: O4_4  and  C19_19 
REMARK    5  A    between atoms: C7_7  and  C16_16 
REMARK    6  A    between atoms: C8_8  and  C17_17 
REMARK    7  A    between atoms: C9_9  and  C21_21 
REMARK    8  A    between atoms: C9_9  and  C20_20 
REMARK    9  A    between atoms: C20_20  and  C24_24 
REMARK   10  A    between atoms: C21_21  and  C25_25 
ROOT
HETATM    1  O1          0      35.844  13.257 195.038  1.00  0.00    -0.353 OA
HETATM    2  C26         0      36.967  14.128 195.185  1.00  0.00     0.210 C 
ENDROOT
BRANCH   1   3
HETATM    3  C12         0      34.648  13.975 194.823  1.00  0.00     0.102 A 
HETATM    4  C18         0      34.001  13.797 193.675  1.00  0.00     0.099 A 
HETATM    5  C22         0      32.751  14.532 193.420  1.00  0.00     0.040 A 
HETATM    6  C14         0      32.257  15.377 194.333  1.00  0.00     0.014 A 
HETATM    7  C7          0      32.956  15.593 195.617  1.00  0.00    -0.033 A 
HETATM    8  C10         0      34.096  14.922 195.847  1.00  0.00     0.051 A 
BRANCH   4   9
HETATM    9  O3          0      34.523  12.909 192.719  1.00  0.00    -0.358 OA
HETATM   10  H40         0      35.386  12.539 193.033  1.00  0.00     0.217 HD
ENDBRANCH   4   9
BRANCH   7  11
HETATM   11  C16         0      32.401  16.560 196.673  1.00  0.00     0.015 C 
HETATM   12  C24         0      31.760  17.715 196.379  1.00  0.00     0.051 C 
BRANCH  12  13
HETATM   13  C20         0      31.226  18.645 197.488  1.00  0.00     0.156 C 
HETATM   14  O5          0      31.228  19.867 197.295  1.00  0.00    -0.293 OA
BRANCH  13  15
HETATM   15  C9          0      30.682  18.071 198.856  1.00  0.00     0.165 C 
BRANCH  15  16
HETATM   16  C21         0      31.560  18.416 200.126  1.00  0.00     0.156 C 
HETATM   17  O6          0      31.073  19.090 201.041  1.00  0.00    -0.293 OA
BRANCH  16  18
HETATM   18  C25         0      33.018  17.931 200.253  1.00  0.00     0.051 C 
HETATM   19  C17         0      33.350  16.633 200.059  1.00  0.00     0.015 C 
BRANCH  19  20
HETATM   20  C8          0      34.781  16.087 200.170  1.00  0.00    -0.033 A 
HETATM   21  C15         0      35.817  16.805 200.941  1.00  0.00     0.014 A 
HETATM   22  C23         0      37.062  16.318 201.031  1.00  0.00     0.040 A 
HETATM   23  C19         0      37.425  15.057 200.365  1.00  0.00     0.099 A 
HETATM   24  C13         0      36.508  14.393 199.665  1.00  0.00     0.102 A 
HETATM   25  C11         0      35.114  14.936 199.562  1.00  0.00     0.051 A 
BRANCH  23  26
HETATM   26  O4          0      38.729  14.543 200.456  1.00  0.00    -0.358 OA
HETATM   27  H41         0      39.339  15.225 200.836  1.00  0.00     0.217 HD
ENDBRANCH  23  26
BRANCH  24  28
HETATM   28  O2          0      36.888  13.187 199.037  1.00  0.00    -0.353 OA
HETATM   29  C27         0      35.761  12.496 198.492  1.00  0.00     0.210 C 
ENDBRANCH  24  28
ENDBRANCH  19  20
ENDBRANCH  16  18
ENDBRANCH  15  16
ENDBRANCH  13  15
ENDBRANCH  12  13
ENDBRANCH   7  11
ENDBRANCH   1   3
TORSDOF 10
ENDMDL
MODEL 5
REMARK VINA RESULT:    -3.301      4.252      9.402
REMARK INTER + INTRA:          -7.606
REMARK INTER:                  -5.396
REMARK INTRA:                  -2.210
REMARK UNBOUND:                -2.183
REMARK  2 active torsions:
REMARK  status: ('A' for Active; 'I' for Inactive)
REMARK    1  A    between atoms: C9_9  and  C13_13 
REMARK    2  A    between atoms: C10_10  and  C14_14 
ROOT
HETATM    1  O1          0      41.077  20.498 195.080  1.00  0.00    -0.380 OA
HETATM    2  O2          0      41.860  16.905 193.006  1.00  0.00    -0.380 OA
HETATM    3  C7          0      41.630  18.259 195.032  1.00  0.00     0.052 C 
HETATM    4  C8          0      42.556  18.817 194.091  1.00  0.00     0.052 C 
HETATM    5  C9          0      40.395  19.202 194.942  1.00  0.00     0.161 C 
HETATM    6  C10         0      42.019  18.337 192.712  1.00  0.00     0.161 C 
HETATM    7  C11         0      42.495  20.323 194.490  1.00  0.00     0.176 C 
HETATM    8  C12         0      41.551  16.790 194.515  1.00  0.00     0.176 C 
ENDROOT
BRANCH   5   9
HETATM    9  C13         0      39.367  18.910 196.081  1.00  0.00    -0.026 A 
HETATM   10  C15         0      38.702  17.733 196.066  1.00  0.00     0.049 A 
HETATM   11  C19         0      37.657  17.526 197.087  1.00  0.00     0.105 A 
HETATM   12  O3          0      36.881  16.431 197.242  1.00  0.00    -0.323 OA
HETATM   13  C23         0      37.349  18.421 197.950  1.00  0.00     0.105 A 
HETATM   14  C25         0      35.969  16.669 198.341  1.00  0.00     0.352 A 
HETATM   15  O5          0      36.349  18.000 198.753  1.00  0.00    -0.323 OA
HETATM   16  C21         0      38.027  19.708 198.009  1.00  0.00     0.040 A 
HETATM   17  C17         0      39.000  19.938 197.111  1.00  0.00     0.012 A 
ENDBRANCH   5   9
BRANCH   6  18
HETATM   18  C14         0      43.039  18.632 191.566  1.00  0.00    -0.026 A 
HETATM   19  C18         0      42.948  19.861 190.710  1.00  0.00     0.012 A 
HETATM   20  C22         0      43.901  20.158 189.809  1.00  0.00     0.040 A 
HETATM   21  C24         0      45.022  19.235 189.692  1.00  0.00     0.105 A 
HETATM   22  O6          0      46.078  19.353 188.860  1.00  0.00    -0.323 OA
HETATM   23  C20         0      45.111  18.176 190.405  1.00  0.00     0.105 A 
HETATM   24  C26         0      46.953  18.226 189.077  1.00  0.00     0.352 A 
HETATM   25  O4          0      46.242  17.497 190.106  1.00  0.00    -0.323 OA
HETATM   26  C16         0      44.105  17.812 191.420  1.00  0.00     0.049 A 
ENDBRANCH   6  18
TORSDOF 2
REMARK  10 active torsions:
REMARK  status: ('A' for Active; 'I' for Inactive)
REMARK    1  A    between atoms: O1_1  and  C12_12 
REMARK    2  A    between atoms: O2_2  and  C13_13 
REMARK    3  A    between atoms: O3_3  and  C18_18 
REMARK    4  A    between atoms: O4_4  and  C19_19 
REMARK    5  A    between atoms: C7_7  and  C16_16 
REMARK    6  A    between atoms: C8_8  and  C17_17 
REMARK    7  A    between atoms: C9_9  and  C21_21 
REMARK    8  A    between atoms: C9_9  and  C20_20 
REMARK    9  A    between atoms: C20_20  and  C24_24 
REMARK   10  A    between atoms: C21_21  and  C25_25 
ROOT
HETATM    1  O1          0      39.945  14.225 198.270  1.00  0.00    -0.353 OA
HETATM    2  C26         0      39.974  14.312 196.844  1.00  0.00     0.210 C 
ENDROOT
BRANCH   1   3
HETATM    3  C12         0      40.129  15.487 198.876  1.00  0.00     0.102 A 
HETATM    4  C18         0      39.345  15.818 199.898  1.00  0.00     0.099 A 
HETATM    5  C22         0      39.512  17.126 200.551  1.00  0.00     0.040 A 
HETATM    6  C14         0      40.446  17.988 200.129  1.00  0.00     0.014 A 
HETATM    7  C7          0      41.330  17.644 198.996  1.00  0.00    -0.033 A 
HETATM    8  C10         0      41.176  16.449 198.402  1.00  0.00     0.051 A 
BRANCH   4   9
HETATM    9  O3          0      38.365  14.912 200.339  1.00  0.00    -0.358 OA
HETATM   10  H40         0      37.731  14.713 199.606  1.00  0.00     0.217 HD
ENDBRANCH   4   9
BRANCH   7  11
HETATM   11  C16         0      42.406  18.621 198.500  1.00  0.00     0.015 C 
HETATM   12  C24         0      42.341  19.963 198.662  1.00  0.00     0.051 C 
BRANCH  12  13
HETATM   13  C20         0      43.457  20.892 198.140  1.00  0.00     0.156 C 
HETATM   14  O5          0      43.140  21.923 197.534  1.00  0.00    -0.293 OA
BRANCH  13  15
HETATM   15  C9          0      44.985  20.555 198.362  1.00  0.00     0.165 C 
BRANCH  15  16
HETATM   16  C21         0      45.793  20.204 197.049  1.00  0.00     0.156 C 
HETATM   17  O6          0      46.700  20.955 196.670  1.00  0.00    -0.293 OA
BRANCH  16  18
HETATM   18  C25         0      45.477  18.941 196.222  1.00  0.00     0.051 C 
HETATM   19  C17         0      45.232  17.751 196.817  1.00  0.00     0.015 C 
BRANCH  19  20
HETATM   20  C8          0      44.911  16.458 196.052  1.00  0.00    -0.033 A 
HETATM   21  C15         0      45.261  16.307 194.624  1.00  0.00     0.014 A 
HETATM   22  C23         0      44.977  15.174 193.968  1.00  0.00     0.040 A 
HETATM   23  C19         0      44.310  14.056 194.654  1.00  0.00     0.099 A 
HETATM   24  C13         0      43.985  14.170 195.939  1.00  0.00     0.102 A 
HETATM   25  C11         0      44.302  15.436 196.676  1.00  0.00     0.051 A 
BRANCH  23  26
HETATM   26  O4          0      44.009  12.866 193.969  1.00  0.00    -0.358 OA
HETATM   27  H41         0      43.030  12.723 193.948  1.00  0.00     0.217 HD
ENDBRANCH  23  26
BRANCH  24  28
HETATM   28  O2          0      43.346  13.079 196.569  1.00  0.00    -0.353 OA
HETATM   29  C27         0      43.371  13.201 197.993  1.00  0.00     0.210 C 
ENDBRANCH  24  28
ENDBRANCH  19  20
ENDBRANCH  16  18
ENDBRANCH  15  16
ENDBRANCH  13  15
ENDBRANCH  12  13
ENDBRANCH   7  11
ENDBRANCH   1   3
TORSDOF 10
ENDMDL
MODEL 6
REMARK VINA RESULT:    -3.298      6.694     10.869
REMARK INTER + INTRA:          -7.602
REMARK INTER:                  -5.378
REMARK INTRA:                  -2.224
REMARK UNBOUND:                -2.183
REMARK  2 active torsions:
REMARK  status: ('A' for Active; 'I' for Inactive)
REMARK    1  A    between atoms: C9_9  and  C13_13 
REMARK    2  A    between atoms: C10_10  and  C14_14 
ROOT
HETATM    1  O1          0      41.346  17.166 191.649  1.00  0.00    -0.380 OA
HETATM    2  O2          0      39.224  13.578 190.980  1.00  0.00    -0.380 OA
HETATM    3  C7          0      41.110  15.103 190.645  1.00  0.00     0.052 C 
HETATM    4  C8          0      39.842  15.715 190.374  1.00  0.00     0.052 C 
HETATM    5  C9          0      41.555  15.751 191.989  1.00  0.00     0.161 C 
HETATM    6  C10         0      38.857  14.962 191.313  1.00  0.00     0.161 C 
HETATM    7  C11         0      40.192  17.215 190.622  1.00  0.00     0.176 C 
HETATM    8  C12         0      40.716  13.596 190.579  1.00  0.00     0.176 C 
ENDROOT
BRANCH   5   9
HETATM    9  C13         0      43.039  15.400 192.329  1.00  0.00    -0.026 A 
HETATM   10  C15         0      44.000  16.305 192.038  1.00  0.00     0.049 A 
HETATM   11  C19         0      45.402  15.908 192.265  1.00  0.00     0.105 A 
HETATM   12  O3          0      46.504  16.657 192.038  1.00  0.00    -0.323 OA
HETATM   13  C23         0      45.730  14.746 192.693  1.00  0.00     0.105 A 
HETATM   14  C25         0      47.671  15.865 192.363  1.00  0.00     0.352 A 
HETATM   15  O5          0      47.071  14.624 192.792  1.00  0.00    -0.323 OA
HETATM   16  C21         0      44.738  13.731 193.018  1.00  0.00     0.040 A 
HETATM   17  C17         0      43.445  14.051 192.845  1.00  0.00     0.012 A 
ENDBRANCH   5   9
BRANCH   6  18
HETATM   18  C14         0      37.371  15.313 190.982  1.00  0.00    -0.026 A 
HETATM   19  C18         0      36.647  14.709 189.814  1.00  0.00     0.012 A 
HETATM   20  C22         0      35.336  14.930 189.615  1.00  0.00     0.040 A 
HETATM   21  C24         0      34.647  15.783 190.574  1.00  0.00     0.105 A 
HETATM   22  O6          0      33.341  16.120 190.558  1.00  0.00    -0.323 OA
HETATM   23  C20         0      35.250  16.315 191.569  1.00  0.00     0.105 A 
HETATM   24  C26         0      33.080  16.972 191.693  1.00  0.00     0.352 A 
HETATM   25  O4          0      34.389  17.055 192.305  1.00  0.00    -0.323 OA
HETATM   26  C16         0      36.681  16.092 191.846  1.00  0.00     0.049 A 
ENDBRANCH   6  18
TORSDOF 2
REMARK  10 active torsions:
REMARK  status: ('A' for Active; 'I' for Inactive)
REMARK    1  A    between atoms: O1_1  and  C12_12 
REMARK    2  A    between atoms: O2_2  and  C13_13 
REMARK    3  A    between atoms: O3_3  and  C18_18 
REMARK    4  A    between atoms: O4_4  and  C19_19 
REMARK    5  A    between atoms: C7_7  and  C16_16 
REMARK    6  A    between atoms: C8_8  and  C17_17 
REMARK    7  A    between atoms: C9_9  and  C21_21 
REMARK    8  A    between atoms: C9_9  and  C20_20 
REMARK    9  A    between atoms: C20_20  and  C24_24 
REMARK   10  A    between atoms: C21_21  and  C25_25 
ROOT
HETATM    1  O1          0      44.325  12.843 197.146  1.00  0.00    -0.353 OA
HETATM    2  C26         0      43.406  12.144 196.304  1.00  0.00     0.210 C 
ENDROOT
BRANCH   1   3
HETATM    3  C12         0      44.560  14.157 196.688  1.00  0.00     0.102 A 
HETATM    4  C18         0      45.819  14.571 196.571  1.00  0.00     0.099 A 
HETATM    5  C22         0      46.097  15.936 196.097  1.00  0.00     0.040 A 
HETATM    6  C14         0      45.096  16.767 195.778  1.00  0.00     0.014 A 
HETATM    7  C7          0      43.689  16.332 195.898  1.00  0.00    -0.033 A 
HETATM    8  C10         0      43.438  15.086 196.331  1.00  0.00     0.051 A 
BRANCH   4   9
HETATM    9  O3          0      46.867  13.697 196.907  1.00  0.00    -0.358 OA
HETATM   10  H40         0      46.519  12.933 197.431  1.00  0.00     0.217 HD
ENDBRANCH   4   9
BRANCH   7  11
HETATM   11  C16         0      42.531  17.273 195.537  1.00  0.00     0.015 C 
HETATM   12  C24         0      42.677  18.410 194.818  1.00  0.00     0.051 C 
BRANCH  12  13
HETATM   13  C20         0      41.471  19.315 194.489  1.00  0.00     0.156 C 
HETATM   14  O5          0      41.477  19.956 193.431  1.00  0.00    -0.293 OA
BRANCH  13  15
HETATM   15  C9          0      40.238  19.439 195.470  1.00  0.00     0.165 C 
BRANCH  15  16
HETATM   16  C21         0      38.918  18.716 194.985  1.00  0.00     0.156 C 
HETATM   17  O6          0      37.843  19.327 195.007  1.00  0.00    -0.293 OA
BRANCH  16  18
HETATM   18  C25         0      38.936  17.258 194.481  1.00  0.00     0.051 C 
HETATM   19  C17         0      38.966  16.215 195.343  1.00  0.00     0.015 C 
BRANCH  19  20
HETATM   20  C8          0      38.984  14.742 194.906  1.00  0.00    -0.033 A 
HETATM   21  C15         0      40.257  14.015 194.717  1.00  0.00     0.014 A 
HETATM   22  C23         0      40.259  12.731 194.337  1.00  0.00     0.040 A 
HETATM   23  C19         0      38.996  12.015 194.098  1.00  0.00     0.099 A 
HETATM   24  C13         0      37.838  12.650 194.262  1.00  0.00     0.102 A 
HETATM   25  C11         0      37.832  14.088 194.687  1.00  0.00     0.051 A 
BRANCH  23  26
HETATM   26  O4          0      38.994  10.668 193.699  1.00  0.00    -0.358 OA
HETATM   27  H41         0      39.523  10.124 194.335  1.00  0.00     0.217 HD
ENDBRANCH  23  26
BRANCH  24  28
HETATM   28  O2          0      36.643  11.936 194.024  1.00  0.00    -0.353 OA
HETATM   29  C27         0      35.942  12.440 192.885  1.00  0.00     0.210 C 
ENDBRANCH  24  28
ENDBRANCH  19  20
ENDBRANCH  16  18
ENDBRANCH  15  16
ENDBRANCH  13  15
ENDBRANCH  12  13
ENDBRANCH   7  11
ENDBRANCH   1   3
TORSDOF 10
ENDMDL
MODEL 7
REMARK VINA RESULT:    -3.283      3.961      8.285
REMARK INTER + INTRA:          -7.577
REMARK INTER:                  -5.478
REMARK INTRA:                  -2.100
REMARK UNBOUND:                -2.183
REMARK  2 active torsions:
REMARK  status: ('A' for Active; 'I' for Inactive)
REMARK    1  A    between atoms: C9_9  and  C13_13 
REMARK    2  A    between atoms: C10_10  and  C14_14 
ROOT
HETATM    1  O1          0      37.773  21.961 198.787  1.00  0.00    -0.380 OA
HETATM    2  O2          0      34.278  19.679 198.151  1.00  0.00    -0.380 OA
HETATM    3  C7          0      35.893  21.423 197.564  1.00  0.00     0.052 C 
HETATM    4  C8          0      35.357  21.581 198.884  1.00  0.00     0.052 C 
HETATM    5  C9          0      37.353  20.944 197.811  1.00  0.00     0.161 C 
HETATM    6  C10         0      35.034  20.126 199.331  1.00  0.00     0.161 C 
HETATM    7  C11         0      36.507  22.387 199.563  1.00  0.00     0.176 C 
HETATM    8  C12         0      34.834  20.463 196.942  1.00  0.00     0.176 C 
ENDROOT
BRANCH   5   9
HETATM    9  C13         0      38.190  20.958 196.492  1.00  0.00    -0.026 A 
HETATM   10  C15         0      38.039  19.937 195.619  1.00  0.00     0.049 A 
HETATM   11  C19         0      38.920  19.914 194.436  1.00  0.00     0.105 A 
HETATM   12  O3          0      38.932  18.987 193.453  1.00  0.00    -0.323 OA
HETATM   13  C23         0      39.824  20.798 194.232  1.00  0.00     0.105 A 
HETATM   14  C25         0      39.977  19.332 192.512  1.00  0.00     0.352 A 
HETATM   15  O5          0      40.510  20.540 193.098  1.00  0.00    -0.323 OA
HETATM   16  C21         0      40.036  21.915 195.140  1.00  0.00     0.040 A 
HETATM   17  C17         0      39.246  21.991 196.224  1.00  0.00     0.012 A 
ENDBRANCH   5   9
BRANCH   6  18
HETATM   18  C14         0      34.202  20.105 200.653  1.00  0.00    -0.026 A 
HETATM   19  C18         0      32.701  20.117 200.655  1.00  0.00     0.012 A 
HETATM   20  C22         0      32.003  19.977 201.795  1.00  0.00     0.040 A 
HETATM   21  C24         0      32.760  19.821 203.029  1.00  0.00     0.105 A 
HETATM   22  O6          0      32.253  19.662 204.269  1.00  0.00    -0.323 OA
HETATM   23  C20         0      34.039  19.821 203.049  1.00  0.00     0.105 A 
HETATM   24  C26         0      33.353  19.538 205.195  1.00  0.00     0.352 A 
HETATM   25  O4          0      34.494  19.657 204.313  1.00  0.00    -0.323 OA
HETATM   26  C16         0      34.855  19.951 201.827  1.00  0.00     0.049 A 
ENDBRANCH   6  18
TORSDOF 2
REMARK  10 active torsions:
REMARK  status: ('A' for Active; 'I' for Inactive)
REMARK    1  A    between atoms: O1_1  and  C12_12 
REMARK    2  A    between atoms: O2_2  and  C13_13 
REMARK    3  A    between atoms: O3_3  and  C18_18 
REMARK    4  A    between atoms: O4_4  and  C19_19 
REMARK    5  A    between atoms: C7_7  and  C16_16 
REMARK    6  A    between atoms: C8_8  and  C17_17 
REMARK    7  A    between atoms: C9_9  and  C21_21 
REMARK    8  A    between atoms: C9_9  and  C20_20 
REMARK    9  A    between atoms: C20_20  and  C24_24 
REMARK   10  A    between atoms: C21_21  and  C25_25 
ROOT
HETATM    1  O1          0      40.758  16.144 194.921  1.00  0.00    -0.353 OA
HETATM    2  C26         0      39.394  16.043 195.333  1.00  0.00     0.210 C 
ENDROOT
BRANCH   1   3
HETATM    3  C12         0      41.375  17.306 195.433  1.00  0.00     0.102 A 
HETATM    4  C18         0      42.364  17.857 194.735  1.00  0.00     0.099 A 
HETATM    5  C22         0      43.029  19.068 195.242  1.00  0.00     0.040 A 
HETATM    6  C14         0      42.647  19.624 196.399  1.00  0.00     0.014 A 
HETATM    7  C7          0      41.550  19.033 197.193  1.00  0.00    -0.033 A 
HETATM    8  C10         0      40.946  17.927 196.729  1.00  0.00     0.051 A 
BRANCH   4   9
HETATM    9  O3          0      42.763  17.271 193.522  1.00  0.00    -0.358 OA
HETATM   10  H40         0      43.266  16.436 193.695  1.00  0.00     0.217 HD
ENDBRANCH   4   9
BRANCH   7  11
HETATM   11  C16         0      41.102  19.659 198.522  1.00  0.00     0.015 C 
HETATM   12  C24         0      41.487  20.883 198.950  1.00  0.00     0.051 C 
BRANCH  12  13
HETATM   13  C20         0      41.001  21.456 200.297  1.00  0.00     0.156 C 
HETATM   14  O5          0      40.650  22.641 200.350  1.00  0.00    -0.293 OA
BRANCH  13  15
HETATM   15  C9          0      40.944  20.565 201.601  1.00  0.00     0.165 C 
BRANCH  15  16
HETATM   16  C21         0      39.497  20.330 202.192  1.00  0.00     0.156 C 
HETATM   17  O6          0      39.228  20.729 203.331  1.00  0.00    -0.293 OA
BRANCH  16  18
HETATM   18  C25         0      38.402  19.610 201.378  1.00  0.00     0.051 C 
HETATM   19  C17         0      38.636  18.419 200.779  1.00  0.00     0.015 C 
BRANCH  19  20
HETATM   20  C8          0      37.590  17.651 199.957  1.00  0.00    -0.033 A 
HETATM   21  C15         0      37.660  17.605 198.482  1.00  0.00     0.014 A 
HETATM   22  C23         0      36.742  16.930 197.776  1.00  0.00     0.040 A 
HETATM   23  C19         0      35.644  16.223 198.453  1.00  0.00     0.099 A 
HETATM   24  C13         0      35.561  16.252 199.781  1.00  0.00     0.102 A 
HETATM   25  C11         0      36.587  17.005 200.574  1.00  0.00     0.051 A 
BRANCH  23  26
HETATM   26  O4          0      34.679  15.516 197.716  1.00  0.00    -0.358 OA
HETATM   27  H41         0      34.796  15.687 196.749  1.00  0.00     0.217 HD
ENDBRANCH  23  26
BRANCH  24  28
HETATM   28  O2          0      34.496  15.563 200.401  1.00  0.00    -0.353 OA
HETATM   29  C27         0      33.588  16.461 201.044  1.00  0.00     0.210 C 
ENDBRANCH  24  28
ENDBRANCH  19  20
ENDBRANCH  16  18
ENDBRANCH  15  16
ENDBRANCH  13  15
ENDBRANCH  12  13
ENDBRANCH   7  11
ENDBRANCH   1   3
TORSDOF 10
ENDMDL
MODEL 8
REMARK VINA RESULT:    -3.280      4.495      8.899
REMARK INTER + INTRA:          -7.571
REMARK INTER:                  -5.310
REMARK INTRA:                  -2.262
REMARK UNBOUND:                -2.183
REMARK  2 active torsions:
REMARK  status: ('A' for Active; 'I' for Inactive)
REMARK    1  A    between atoms: C9_9  and  C13_13 
REMARK    2  A    between atoms: C10_10  and  C14_14 
ROOT
HETATM    1  O1          0      39.769  16.228 198.264  1.00  0.00    -0.380 OA
HETATM    2  O2          0      38.868  19.261 195.469  1.00  0.00    -0.380 OA
HETATM    3  C7          0      40.122  18.314 197.347  1.00  0.00     0.052 C 
HETATM    4  C8          0      38.705  18.320 197.568  1.00  0.00     0.052 C 
HETATM    5  C9          0      40.454  16.814 197.102  1.00  0.00     0.161 C 
HETATM    6  C10         0      38.105  18.196 196.138  1.00  0.00     0.161 C 
HETATM    7  C11         0      38.574  17.151 198.592  1.00  0.00     0.176 C 
HETATM    8  C12         0      40.232  19.354 196.190  1.00  0.00     0.176 C 
ENDROOT
BRANCH   5   9
HETATM    9  C13         0      41.996  16.563 197.091  1.00  0.00    -0.026 A 
HETATM   10  C15         0      42.594  16.164 198.236  1.00  0.00     0.049 A 
HETATM   11  C19         0      44.065  16.042 198.230  1.00  0.00     0.105 A 
HETATM   12  O3          0      44.850  15.664 199.263  1.00  0.00    -0.323 OA
HETATM   13  C23         0      44.777  16.324 197.204  1.00  0.00     0.105 A 
HETATM   14  C25         0      46.230  15.717 198.831  1.00  0.00     0.352 A 
HETATM   15  O5          0      46.091  16.155 197.462  1.00  0.00    -0.323 OA
HETATM   16  C21         0      44.187  16.763 195.947  1.00  0.00     0.040 A 
HETATM   17  C17         0      42.849  16.873 195.896  1.00  0.00     0.012 A 
ENDBRANCH   5   9
BRANCH   6  18
HETATM   18  C14         0      36.562  18.440 196.142  1.00  0.00    -0.026 A 
HETATM   19  C18         0      35.574  17.310 196.157  1.00  0.00     0.012 A 
HETATM   20  C22         0      34.255  17.537 196.281  1.00  0.00     0.040 A 
HETATM   21  C24         0      33.822  18.924 196.392  1.00  0.00     0.105 A 
HETATM   22  O6          0      32.553  19.362 196.529  1.00  0.00    -0.323 OA
HETATM   23  C20         0      34.648  19.900 196.368  1.00  0.00     0.105 A 
HETATM   24  C26         0      32.578  20.802 196.609  1.00  0.00     0.352 A 
HETATM   25  O4          0      33.994  21.078 196.491  1.00  0.00    -0.323 OA
HETATM   26  C16         0      36.106  19.707 196.254  1.00  0.00     0.049 A 
ENDBRANCH   6  18
TORSDOF 2
REMARK  10 active torsions:
REMARK  status: ('A' for Active; 'I' for Inactive)
REMARK    1  A    between atoms: O1_1  and  C12_12 
REMARK    2  A    between atoms: O2_2  and  C13_13 
REMARK    3  A    between atoms: O3_3  and  C18_18 
REMARK    4  A    between atoms: O4_4  and  C19_19 
REMARK    5  A    between atoms: C7_7  and  C16_16 
REMARK    6  A    between atoms: C8_8  and  C17_17 
REMARK    7  A    between atoms: C9_9  and  C21_21 
REMARK    8  A    between atoms: C9_9  and  C20_20 
REMARK    9  A    between atoms: C20_20  and  C24_24 
REMARK   10  A    between atoms: C21_21  and  C25_25 
ROOT
HETATM    1  O1          0      37.035  18.059 191.648  1.00  0.00    -0.353 OA
HETATM    2  C26         0      36.019  18.612 192.487  1.00  0.00     0.210 C 
ENDROOT
BRANCH   1   3
HETATM    3  C12         0      37.972  17.305 192.387  1.00  0.00     0.102 A 
HETATM    4  C18         0      39.253  17.660 192.333  1.00  0.00     0.099 A 
HETATM    5  C22         0      40.255  16.894 193.092  1.00  0.00     0.040 A 
HETATM    6  C14         0      39.891  15.844 193.839  1.00  0.00     0.014 A 
HETATM    7  C7          0      38.475  15.430 193.917  1.00  0.00    -0.033 A 
HETATM    8  C10         0      37.562  16.130 193.223  1.00  0.00     0.051 A 
BRANCH   4   9
HETATM    9  O3          0      39.631  18.762 191.548  1.00  0.00    -0.358 OA
HETATM   10  H40         0      40.449  18.549 191.032  1.00  0.00     0.217 HD
ENDBRANCH   4   9
BRANCH   7  11
HETATM   11  C16         0      38.043  14.227 194.769  1.00  0.00     0.015 C 
HETATM   12  C24         0      37.680  14.313 196.069  1.00  0.00     0.051 C 
BRANCH  12  13
HETATM   13  C20         0      37.256  13.065 196.872  1.00  0.00     0.156 C 
HETATM   14  O5          0      36.051  12.858 197.061  1.00  0.00    -0.293 OA
BRANCH  13  15
HETATM   15  C9          0      38.323  12.055 197.453  1.00  0.00     0.165 C 
BRANCH  15  16
HETATM   16  C21         0      39.480  12.716 198.303  1.00  0.00     0.156 C 
HETATM   17  O6          0      39.243  13.125 199.446  1.00  0.00    -0.293 OA
BRANCH  16  18
HETATM   18  C25         0      40.909  12.865 197.741  1.00  0.00     0.051 C 
HETATM   19  C17         0      41.139  12.944 196.410  1.00  0.00     0.015 C 
BRANCH  19  20
HETATM   20  C8          0      42.535  13.093 195.787  1.00  0.00    -0.033 A 
HETATM   21  C15         0      43.755  12.779 196.559  1.00  0.00     0.014 A 
HETATM   22  C23         0      44.967  12.913 196.003  1.00  0.00     0.040 A 
HETATM   23  C19         0      45.110  13.375 194.614  1.00  0.00     0.099 A 
HETATM   24  C13         0      44.025  13.664 193.901  1.00  0.00     0.102 A 
HETATM   25  C11         0      42.667  13.516 194.519  1.00  0.00     0.051 A 
BRANCH  23  26
HETATM   26  O4          0      46.380  13.518 194.029  1.00  0.00    -0.358 OA
HETATM   27  H41         0      47.033  13.832 194.703  1.00  0.00     0.217 HD
ENDBRANCH  23  26
BRANCH  24  28
HETATM   28  O2          0      44.196  14.106 192.570  1.00  0.00    -0.353 OA
HETATM   29  C27         0      43.627  15.401 192.365  1.00  0.00     0.210 C 
ENDBRANCH  24  28
ENDBRANCH  19  20
ENDBRANCH  16  18
ENDBRANCH  15  16
ENDBRANCH  13  15
ENDBRANCH  12  13
ENDBRANCH   7  11
ENDBRANCH   1   3
TORSDOF 10
ENDMDL
MODEL 9
REMARK VINA RESULT:    -3.274      3.197      8.853
REMARK INTER + INTRA:          -7.563
REMARK INTER:                  -5.589
REMARK INTRA:                  -1.973
REMARK UNBOUND:                -2.183
REMARK  2 active torsions:
REMARK  status: ('A' for Active; 'I' for Inactive)
REMARK    1  A    between atoms: C9_9  and  C13_13 
REMARK    2  A    between atoms: C10_10  and  C14_14 
ROOT
HETATM    1  O1          0      42.861  16.337 196.657  1.00  0.00    -0.380 OA
HETATM    2  O2          0      39.022  14.644 196.185  1.00  0.00    -0.380 OA
HETATM    3  C7          0      40.984  15.877 195.397  1.00  0.00     0.052 C 
HETATM    4  C8          0      40.416  16.437 196.588  1.00  0.00     0.052 C 
HETATM    5  C9          0      42.302  15.213 195.890  1.00  0.00     0.161 C 
HETATM    6  C10         0      39.783  15.212 197.308  1.00  0.00     0.161 C 
HETATM    7  C11         0      41.663  17.157 197.186  1.00  0.00     0.176 C 
HETATM    8  C12         0      39.792  15.007 194.896  1.00  0.00     0.176 C 
ENDROOT
BRANCH   5   9
HETATM    9  C13         0      43.199  14.763 194.694  1.00  0.00    -0.026 A 
HETATM   10  C15         0      44.180  13.861 194.924  1.00  0.00     0.049 A 
HETATM   11  C19         0      45.085  13.536 193.805  1.00  0.00     0.105 A 
HETATM   12  O3          0      46.121  12.669 193.826  1.00  0.00    -0.323 OA
HETATM   13  C23         0      44.988  14.092 192.655  1.00  0.00     0.105 A 
HETATM   14  C25         0      46.757  12.685 192.526  1.00  0.00     0.352 A 
HETATM   15  O5          0      45.945  13.644 191.815  1.00  0.00    -0.323 OA
HETATM   16  C21         0      43.957  15.074 192.353  1.00  0.00     0.040 A 
HETATM   17  C17         0      43.096  15.391 193.335  1.00  0.00     0.012 A 
ENDBRANCH   5   9
BRANCH   6  18
HETATM   18  C14         0      38.889  15.654 198.511  1.00  0.00    -0.026 A 
HETATM   19  C18         0      38.771  17.088 198.936  1.00  0.00     0.012 A 
HETATM   20  C22         0      37.906  17.464 199.894  1.00  0.00     0.040 A 
HETATM   21  C24         0      37.094  16.423 200.509  1.00  0.00     0.105 A 
HETATM   22  O6          0      36.169  16.591 201.477  1.00  0.00    -0.323 OA
HETATM   23  C20         0      37.189  15.194 200.169  1.00  0.00     0.105 A 
HETATM   24  C26         0      35.600  15.302 201.787  1.00  0.00     0.352 A 
HETATM   25  O4          0      36.328  14.435 200.885  1.00  0.00    -0.323 OA
HETATM   26  C16         0      38.106  14.729 199.111  1.00  0.00     0.049 A 
ENDBRANCH   6  18
TORSDOF 2
REMARK  10 active torsions:
REMARK  status: ('A' for Active; 'I' for Inactive)
REMARK    1  A    between atoms: O1_1  and  C12_12 
REMARK    2  A    between atoms: O2_2  and  C13_13 
REMARK    3  A    between atoms: O3_3  and  C18_18 
REMARK    4  A    between atoms: O4_4  and  C19_19 
REMARK    5  A    between atoms: C7_7  and  C16_16 
REMARK    6  A    between atoms: C8_8  and  C17_17 
REMARK    7  A    between atoms: C9_9  and  C21_21 
REMARK    8  A    between atoms: C9_9  and  C20_20 
REMARK    9  A    between atoms: C20_20  and  C24_24 
REMARK   10  A    between atoms: C21_21  and  C25_25 
ROOT
HETATM    1  O1          0      38.958  12.162 202.779  1.00  0.00    -0.353 OA
HETATM    2  C26         0      38.392  11.647 201.572  1.00  0.00     0.210 C 
ENDROOT
BRANCH   1   3
HETATM    3  C12         0      39.451  13.474 202.609  1.00  0.00     0.102 A 
HETATM    4  C18         0      38.930  14.447 203.351  1.00  0.00     0.099 A 
HETATM    5  C22         0      39.421  15.825 203.197  1.00  0.00     0.040 A 
HETATM    6  C14         0      40.390  16.111 202.318  1.00  0.00     0.014 A 
HETATM    7  C7          0      40.986  15.049 201.482  1.00  0.00    -0.033 A 
HETATM    8  C10         0      40.536  13.792 201.624  1.00  0.00     0.051 A 
BRANCH   4   9
HETATM    9  O3          0      37.913  14.143 204.273  1.00  0.00    -0.358 OA
HETATM   10  H40         0      37.397  14.958 204.494  1.00  0.00     0.217 HD
ENDBRANCH   4   9
BRANCH   7  11
HETATM   11  C16         0      42.097  15.362 200.468  1.00  0.00     0.015 C 
HETATM   12  C24         0      43.406  15.085 200.671  1.00  0.00     0.051 C 
BRANCH  12  13
HETATM   13  C20         0      44.475  15.426 199.612  1.00  0.00     0.156 C 
HETATM   14  O5          0      44.762  16.613 199.414  1.00  0.00    -0.293 OA
BRANCH  13  15
HETATM   15  C9          0      45.204  14.297 198.781  1.00  0.00     0.165 C 
BRANCH  15  16
HETATM   16  C21         0      44.607  12.843 198.955  1.00  0.00     0.156 C 
HETATM   17  O6          0      45.040  12.107 199.850  1.00  0.00    -0.293 OA
BRANCH  16  18
HETATM   18  C25         0      43.490  12.314 198.031  1.00  0.00     0.051 C 
HETATM   19  C17         0      42.185  12.410 198.376  1.00  0.00     0.015 C 
BRANCH  19  20
HETATM   20  C8          0      41.027  11.904 197.502  1.00  0.00    -0.033 A 
HETATM   21  C15         0      39.706  11.597 198.086  1.00  0.00     0.014 A 
HETATM   22  C23         0      38.704  11.157 197.312  1.00  0.00     0.040 A 
HETATM   23  C19         0      38.897  10.970 195.866  1.00  0.00     0.099 A 
HETATM   24  C13         0      40.080  11.241 195.319  1.00  0.00     0.102 A 
HETATM   25  C11         0      41.203  11.733 196.181  1.00  0.00     0.051 A 
BRANCH  23  26
HETATM   26  O4          0      37.849  10.509 195.051  1.00  0.00    -0.358 OA
HETATM   27  H41         0      37.413  11.270 194.593  1.00  0.00     0.217 HD
ENDBRANCH  23  26
BRANCH  24  28
HETATM   28  O2          0      40.234  11.051 193.928  1.00  0.00    -0.353 OA
HETATM   29  C27         0      41.250  11.899 193.387  1.00  0.00     0.210 C 
ENDBRANCH  24  28
ENDBRANCH  19  20
ENDBRANCH  16  18
ENDBRANCH  15  16
ENDBRANCH  13  15
ENDBRANCH  12  13
ENDBRANCH   7  11
ENDBRANCH   1   3
TORSDOF 10
ENDMDL
