MODEL 1
REMARK VINA RESULT:    -4.188      0.000      0.000
REMARK INTER + INTRA:          -7.568
REMARK INTER:                  -6.392
REMARK INTRA:                  -1.176
REMARK UNBOUND:                -1.176
REMARK  Name = BCBL.pdb
REMARK  4 active torsions:
REMARK  status: ('A' for Active; 'I' for Inactive)
REMARK    1  A    between atoms: O1_1  and  C6_6
REMARK    2  A    between atoms: O3_3  and  C17_17
REMARK    3  A    between atoms: O4_4  and  C18_18
REMARK    4  A    between atoms: O5_5  and  C21_21
REMARK                            x       y       z     vdW  Elec       q    Type
REMARK                         _______ _______ _______ _____ _____    ______ ____
ROOT
ATOM      1  O2  UNK B   0      39.880  15.585 197.488  0.00  0.00    +0.000 OA
ATOM      2  C6  UNK B   0      39.274  16.069 199.813  0.00  0.00    +0.000 C 
ATOM      3  C7  UNK B   0      38.231  14.914 199.832  0.00  0.00    +0.000 C 
ATOM      4  C8  UNK B   0      40.585  15.526 200.432  0.00  0.00    +0.000 C 
ATOM      5  C9  UNK B   0      38.762  14.071 200.969  0.00  0.00    +0.000 A 
ATOM      6  C10 UNK B   0      40.076  14.419 201.298  0.00  0.00    +0.000 A 
ATOM      7  C11 UNK B   0      39.479  16.606 198.402  0.00  0.00    +0.000 C 
ATOM      8  C12 UNK B   0      38.159  14.189 198.507  0.00  0.00    +0.000 A 
ATOM      9  C13 UNK B   0      38.989  14.544 197.434  0.00  0.00    +0.000 A 
ATOM     10  C14 UNK B   0      38.103  13.073 201.673  0.00  0.00    +0.000 A 
ATOM     11  C15 UNK B   0      40.766  13.756 202.303  0.00  0.00    +0.000 A 
ATOM     12  C16 UNK B   0      37.246  13.138 198.321  0.00  0.00    +0.000 A 
ATOM     13  C17 UNK B   0      38.786  12.408 202.694  0.00  0.00    +0.000 A 
ATOM     14  C18 UNK B   0      40.110  12.744 203.003  0.00  0.00    +0.000 A 
ATOM     15  C19 UNK B   0      38.961  13.823 196.236  0.00  0.00    +0.000 A 
ATOM     16  C20 UNK B   0      37.203  12.432 197.117  0.00  0.00    +0.000 A 
ATOM     17  C21 UNK B   0      38.066  12.768 196.078  0.00  0.00    +0.000 A 
ENDROOT
BRANCH   2  18
ATOM     18  O1  UNK B   0      38.794  17.159 200.608  0.00  0.00    +0.000 OA
ATOM     19  H28 UNK B   0      38.865  17.974 200.082  0.00  0.00    +0.000 HD
ENDBRANCH   2  18
BRANCH  13  20
ATOM     20  O3  UNK B   0      38.147  11.422 203.388  0.00  0.00    +0.000 OA
ATOM     21  H33 UNK B   0      37.946  10.688 202.783  0.00  0.00    +0.000 HD
ENDBRANCH  13  20
BRANCH  14  22
ATOM     22  O4  UNK B   0      40.772  12.087 203.998  0.00  0.00    +0.000 OA
ATOM     23  H34 UNK B   0      41.010  12.724 204.693  0.00  0.00    +0.000 HD
ENDBRANCH  14  22
BRANCH  17  24
ATOM     24  O5  UNK B   0      38.030  12.073 194.909  0.00  0.00    +0.000 OA
ATOM     25  H35 UNK B   0      38.941  11.949 194.588  0.00  0.00    +0.000 HD
ENDBRANCH  17  24
TORSDOF 4
REMARK  Name = KETCA.pdb
REMARK  8 active torsions:
REMARK  status: ('A' for Active; 'I' for Inactive)
REMARK    1  A    between atoms: O5_5  and  C16_16
REMARK    2  A    between atoms: O5_5  and  C24_24
REMARK    3  A    between atoms: N7_7  and  C21_21
REMARK    4  A    between atoms: N9_9  and  C14_14
REMARK    5  A    between atoms: C11_11  and  C14_14
REMARK    6  A    between atoms: C11_11  and  C15_15
REMARK    7  A    between atoms: C12_12  and  C16_16
REMARK    8  A    between atoms: C25_25  and  C36_36
REMARK                            x       y       z     vdW  Elec       q    Type
REMARK                         _______ _______ _______ _____ _____    ______ ____
ROOT
ATOM      1  O3  UNK K   1      37.493   9.772 199.518  0.00  0.00    +0.000 OA
ATOM      2  O4  UNK K   1      37.967   9.134 201.709  0.00  0.00    +0.000 OA
ATOM      3  C11 UNK K   1      38.571   9.174 200.390  0.00  0.00    +0.000 C 
ATOM      4  C12 UNK K   1      36.315   9.915 200.403  0.00  0.00    +0.000 C 
ATOM      5  C13 UNK K   1      36.571   8.759 201.370  0.00  0.00    +0.000 C 
ENDROOT
BRANCH   3   8
ATOM      6 CL1  UNK K   1      41.187   8.846 202.340  0.00  0.00    +0.000 Cl
ATOM      7 CL2  UNK K   1      43.594  12.595 199.381  0.00  0.00    +0.000 Cl
ATOM      8  C15 UNK K   1      39.916  10.017 200.252  0.00  0.00    +0.000 A 
ATOM      9  C22 UNK K   1      41.041   9.891 200.994  0.00  0.00    +0.000 A 
ATOM     10  C23 UNK K   1      39.946  10.978 199.128  0.00  0.00    +0.000 A 
ATOM     11  C32 UNK K   1      42.212  10.754 200.715  0.00  0.00    +0.000 A 
ATOM     12  C33 UNK K   1      41.009  11.747 198.892  0.00  0.00    +0.000 A 
ATOM     13  C34 UNK K   1      42.202  11.613 199.703  0.00  0.00    +0.000 A 
ENDBRANCH   3   8
BRANCH   3  14
ATOM     14  C14 UNK K   1      38.774   7.643 199.964  0.00  0.00    +0.000 C 
BRANCH  14  15
ATOM     15  N9  UNK K   1      38.477   7.287 198.548  0.00  0.00    +0.000 N 
ATOM     16  N10 UNK K   1      38.638   7.283 196.392  0.00  0.00    +0.000 NA
ATOM     17  C28 UNK K   1      37.271   6.766 198.080  0.00  0.00    +0.000 A 
ATOM     18  C29 UNK K   1      39.278   7.612 197.450  0.00  0.00    +0.000 A 
ATOM     19  C35 UNK K   1      37.372   6.747 196.751  0.00  0.00    +0.000 A 
ENDBRANCH  14  15
ENDBRANCH   3  14
BRANCH   4  20
ATOM     20  C16 UNK K   1      34.853  10.010 199.619  0.00  0.00    +0.000 C 
BRANCH  20  21
ATOM     21  O5  UNK K   1      33.887  11.012 200.214  0.00  0.00    +0.000 OA
BRANCH  21  23
ATOM     22  C21 UNK K   1      34.355  15.353 199.458  0.00  0.00    +0.000 A 
ATOM     23  C24 UNK K   1      34.005  12.492 199.888  0.00  0.00    +0.000 A 
ATOM     24  C26 UNK K   1      33.849  14.564 198.490  0.00  0.00    +0.000 A 
ATOM     25  C27 UNK K   1      34.714  14.719 200.737  0.00  0.00    +0.000 A 
ATOM     26  C30 UNK K   1      33.652  13.053 198.718  0.00  0.00    +0.000 A 
ATOM     27  C31 UNK K   1      34.563  13.399 200.934  0.00  0.00    +0.000 A 
BRANCH  22  29
ATOM     28  O6  UNK K   1      34.184  21.809 198.435  0.00  0.00    +0.000 OA
ATOM     29  N7  UNK K   1      34.575  16.814 199.273  0.00  0.00    +0.000 N 
ATOM     30  N8  UNK K   1      34.977  19.659 198.772  0.00  0.00    +0.000 N 
ATOM     31  C17 UNK K   1      33.677  17.802 199.852  0.00  0.00    +0.000 C 
ATOM     32  C18 UNK K   1      35.693  17.290 198.460  0.00  0.00    +0.000 C 
ATOM     33  C19 UNK K   1      33.645  19.129 198.981  0.00  0.00    +0.000 C 
ATOM     34  C20 UNK K   1      36.110  18.765 198.840  0.00  0.00    +0.000 C 
ATOM     35  C25 UNK K   1      35.162  21.054 198.502  0.00  0.00    +0.000 C 
ATOM     36  C36 UNK K   1      36.548  21.629 198.323  0.00  0.00    +0.000 C 
ENDBRANCH  22  29
ENDBRANCH  21  23
ENDBRANCH  20  21
ENDBRANCH   4  20
TORSDOF 7
ENDMDL
MODEL 2
REMARK VINA RESULT:    -4.184      3.938      7.205
REMARK INTER + INTRA:          -7.561
REMARK INTER:                  -6.388
REMARK INTRA:                  -1.172
REMARK UNBOUND:                -1.176
REMARK  Name = BCBL.pdb
REMARK  4 active torsions:
REMARK  status: ('A' for Active; 'I' for Inactive)
REMARK    1  A    between atoms: O1_1  and  C6_6
REMARK    2  A    between atoms: O3_3  and  C17_17
REMARK    3  A    between atoms: O4_4  and  C18_18
REMARK    4  A    between atoms: O5_5  and  C21_21
REMARK                            x       y       z     vdW  Elec       q    Type
REMARK                         _______ _______ _______ _____ _____    ______ ____
ROOT
ATOM      1  O2  UNK B   0      39.903  13.185 196.126  0.00  0.00    +0.000 OA
ATOM      2  C6  UNK B   0      38.919  15.424 196.296  0.00  0.00    +0.000 C 
ATOM      3  C7  UNK B   0      39.225  15.493 197.821  0.00  0.00    +0.000 C 
ATOM      4  C8  UNK B   0      40.066  16.154 195.555  0.00  0.00    +0.000 C 
ATOM      5  C9  UNK B   0      40.096  16.727 197.879  0.00  0.00    +0.000 A 
ATOM      6  C10 UNK B   0      40.562  17.089 196.611  0.00  0.00    +0.000 A 
ATOM      7  C11 UNK B   0      38.756  13.982 195.830  0.00  0.00    +0.000 C 
ATOM      8  C12 UNK B   0      39.897  14.237 198.326  0.00  0.00    +0.000 A 
ATOM      9  C13 UNK B   0      40.214  13.180 197.461  0.00  0.00    +0.000 A 
ATOM     10  C14 UNK B   0      40.432  17.484 198.993  0.00  0.00    +0.000 A 
ATOM     11  C15 UNK B   0      41.397  18.183 196.436  0.00  0.00    +0.000 A 
ATOM     12  C16 UNK B   0      40.217  14.101 199.687  0.00  0.00    +0.000 A 
ATOM     13  C17 UNK B   0      41.264  18.593 198.825  0.00  0.00    +0.000 A 
ATOM     14  C18 UNK B   0      41.747  18.938 197.556  0.00  0.00    +0.000 A 
ATOM     15  C19 UNK B   0      40.896  12.052 197.927  0.00  0.00    +0.000 A 
ATOM     16  C20 UNK B   0      40.879  12.964 200.156  0.00  0.00    +0.000 A 
ATOM     17  C21 UNK B   0      41.227  11.944 199.275  0.00  0.00    +0.000 A 
ENDROOT
BRANCH   2  18
ATOM     18  O1  UNK B   0      37.682  16.092 196.025  0.00  0.00    +0.000 OA
ATOM     19  H28 UNK B   0      37.884  16.957 195.629  0.00  0.00    +0.000 HD
ENDBRANCH   2  18
BRANCH  13  20
ATOM     20  O3  UNK B   0      41.604  19.340 199.915  0.00  0.00    +0.000 OA
ATOM     21  H33 UNK B   0      41.238  20.235 199.812  0.00  0.00    +0.000 HD
ENDBRANCH  13  20
BRANCH  14  22
ATOM     22  O4  UNK B   0      42.562  20.019 197.400  0.00  0.00    +0.000 OA
ATOM     23  H34 UNK B   0      42.739  20.149 196.453  0.00  0.00    +0.000 HD
ENDBRANCH  14  22
BRANCH  17  24
ATOM     24  O5  UNK B   0      41.880  10.842 199.732  0.00  0.00    +0.000 OA
ATOM     25  H35 UNK B   0      41.322  10.395 200.392  0.00  0.00    +0.000 HD
ENDBRANCH  17  24
TORSDOF 4
REMARK  Name = KETCA.pdb
REMARK  8 active torsions:
REMARK  status: ('A' for Active; 'I' for Inactive)
REMARK    1  A    between atoms: O5_5  and  C16_16
REMARK    2  A    between atoms: O5_5  and  C24_24
REMARK    3  A    between atoms: N7_7  and  C21_21
REMARK    4  A    between atoms: N9_9  and  C14_14
REMARK    5  A    between atoms: C11_11  and  C14_14
REMARK    6  A    between atoms: C11_11  and  C15_15
REMARK    7  A    between atoms: C12_12  and  C16_16
REMARK    8  A    between atoms: C25_25  and  C36_36
REMARK                            x       y       z     vdW  Elec       q    Type
REMARK                         _______ _______ _______ _____ _____    ______ ____
ROOT
ATOM      1  O3  UNK K   1      42.887  15.660 201.486  0.00  0.00    +0.000 OA
ATOM      2  O4  UNK K   1      43.510  17.906 201.458  0.00  0.00    +0.000 OA
ATOM      3  C11 UNK K   1      43.943  16.609 200.970  0.00  0.00    +0.000 C 
ATOM      4  C12 UNK K   1      41.998  16.491 202.328  0.00  0.00    +0.000 C 
ATOM      5  C13 UNK K   1      42.998  17.546 202.804  0.00  0.00    +0.000 C 
ENDROOT
BRANCH   3   8
ATOM      6 CL1  UNK K   1      45.572  18.699 199.040  0.00  0.00    +0.000 Cl
ATOM      7 CL2  UNK K   1      44.319  15.532 194.916  0.00  0.00    +0.000 Cl
ATOM      8  C15 UNK K   1      44.089  16.459 199.391  0.00  0.00    +0.000 A 
ATOM      9  C22 UNK K   1      44.787  17.260 198.553  0.00  0.00    +0.000 A 
ATOM     10  C23 UNK K   1      43.453  15.256 198.810  0.00  0.00    +0.000 A 
ATOM     11  C32 UNK K   1      44.827  16.960 197.104  0.00  0.00    +0.000 A 
ATOM     12  C33 UNK K   1      43.499  15.001 197.502  0.00  0.00    +0.000 A 
ATOM     13  C34 UNK K   1      44.237  15.875 196.613  0.00  0.00    +0.000 A 
ENDBRANCH   3   8
BRANCH   3  14
ATOM     14  C14 UNK K   1      45.317  16.299 201.733  0.00  0.00    +0.000 C 
BRANCH  14  15
ATOM     15  N9  UNK K   1      45.522  14.907 202.223  0.00  0.00    +0.000 N 
ATOM     16  N10 UNK K   1      45.773  12.761 202.155  0.00  0.00    +0.000 NA
ATOM     17  C28 UNK K   1      45.250  14.454 203.514  0.00  0.00    +0.000 A 
ATOM     18  C29 UNK K   1      45.820  13.805 201.417  0.00  0.00    +0.000 A 
ATOM     19  C35 UNK K   1      45.419  13.131 203.480  0.00  0.00    +0.000 A 
ENDBRANCH  14  15
ENDBRANCH   3  14
BRANCH   4  20
ATOM     20  C16 UNK K   1      41.106  15.653 203.452  0.00  0.00    +0.000 C 
BRANCH  20  21
ATOM     21  O5  UNK K   1      39.671  16.115 203.585  0.00  0.00    +0.000 OA
BRANCH  21  23
ATOM     22  C21 UNK K   1      36.599  14.909 200.630  0.00  0.00    +0.000 A 
ATOM     23  C24 UNK K   1      38.608  15.634 202.613  0.00  0.00    +0.000 A 
ATOM     24  C26 UNK K   1      37.038  14.010 201.530  0.00  0.00    +0.000 A 
ATOM     25  C27 UNK K   1      37.162  16.268 200.691  0.00  0.00    +0.000 A 
ATOM     26  C30 UNK K   1      38.092  14.393 202.588  0.00  0.00    +0.000 A 
ATOM     27  C31 UNK K   1      38.096  16.602 201.597  0.00  0.00    +0.000 A 
BRANCH  22  29
ATOM     28  O6  UNK K   1      31.490  13.196 196.926  0.00  0.00    +0.000 OA
ATOM     29  N7  UNK K   1      35.594  14.575 199.583  0.00  0.00    +0.000 N 
ATOM     30  N8  UNK K   1      33.634  13.785 197.572  0.00  0.00    +0.000 N 
ATOM     31  C17 UNK K   1      34.210  15.017 199.683  0.00  0.00    +0.000 C 
ATOM     32  C18 UNK K   1      35.974  13.750 198.438  0.00  0.00    +0.000 C 
ATOM     33  C19 UNK K   1      33.231  14.009 198.945  0.00  0.00    +0.000 C 
ATOM     34  C20 UNK K   1      35.017  13.984 197.202  0.00  0.00    +0.000 C 
ATOM     35  C25 UNK K   1      32.670  13.372 196.596  0.00  0.00    +0.000 C 
ATOM     36  C36 UNK K   1      33.067  13.176 195.152  0.00  0.00    +0.000 C 
ENDBRANCH  22  29
ENDBRANCH  21  23
ENDBRANCH  20  21
ENDBRANCH   4  20
TORSDOF 7
ENDMDL
MODEL 3
REMARK VINA RESULT:    -4.183      5.355      8.950
REMARK INTER + INTRA:          -7.560
REMARK INTER:                  -6.364
REMARK INTRA:                  -1.196
REMARK UNBOUND:                -1.176
REMARK  Name = BCBL.pdb
REMARK  4 active torsions:
REMARK  status: ('A' for Active; 'I' for Inactive)
REMARK    1  A    between atoms: O1_1  and  C6_6
REMARK    2  A    between atoms: O3_3  and  C17_17
REMARK    3  A    between atoms: O4_4  and  C18_18
REMARK    4  A    between atoms: O5_5  and  C21_21
REMARK                            x       y       z     vdW  Elec       q    Type
REMARK                         _______ _______ _______ _____ _____    ______ ____
ROOT
ATOM      1  O2  UNK B   0      36.518  20.049 194.577  0.00  0.00    +0.000 OA
ATOM      2  C6  UNK B   0      34.169  19.935 195.268  0.00  0.00    +0.000 C 
ATOM      3  C7  UNK B   0      34.489  18.855 196.342  0.00  0.00    +0.000 C 
ATOM      4  C8  UNK B   0      34.150  21.310 195.979  0.00  0.00    +0.000 C 
ATOM      5  C9  UNK B   0      34.009  19.551 197.596  0.00  0.00    +0.000 A 
ATOM      6  C10 UNK B   0      33.822  20.921 197.385  0.00  0.00    +0.000 A 
ATOM      7  C11 UNK B   0      35.174  19.890 194.123  0.00  0.00    +0.000 C 
ATOM      8  C12 UNK B   0      35.955  18.486 196.363  0.00  0.00    +0.000 A 
ATOM      9  C13 UNK B   0      36.876  19.109 195.508  0.00  0.00    +0.000 A 
ATOM     10  C14 UNK B   0      33.740  18.988 198.835  0.00  0.00    +0.000 A 
ATOM     11  C15 UNK B   0      33.404  21.756 198.411  0.00  0.00    +0.000 A 
ATOM     12  C16 UNK B   0      36.427  17.499 197.243  0.00  0.00    +0.000 A 
ATOM     13  C17 UNK B   0      33.308  19.820 199.871  0.00  0.00    +0.000 A 
ATOM     14  C18 UNK B   0      33.145  21.195 199.661  0.00  0.00    +0.000 A 
ATOM     15  C19 UNK B   0      38.240  18.809 195.583  0.00  0.00    +0.000 A 
ATOM     16  C20 UNK B   0      37.787  17.183 197.302  0.00  0.00    +0.000 A 
ATOM     17  C21 UNK B   0      38.694  17.845 196.479  0.00  0.00    +0.000 A 
ENDROOT
BRANCH   2  18
ATOM     18  O1  UNK B   0      32.879  19.679 194.702  0.00  0.00    +0.000 OA
ATOM     19  H28 UNK B   0      32.541  20.511 194.328  0.00  0.00    +0.000 HD
ENDBRANCH   2  18
BRANCH  13  20
ATOM     20  O3  UNK B   0      33.046  19.276 201.094  0.00  0.00    +0.000 OA
ATOM     21  H33 UNK B   0      33.867  18.901 201.457  0.00  0.00    +0.000 HD
ENDBRANCH  13  20
BRANCH  14  22
ATOM     22  O4  UNK B   0      32.727  22.002 200.678  0.00  0.00    +0.000 OA
ATOM     23  H34 UNK B   0      32.033  21.543 201.181  0.00  0.00    +0.000 HD
ENDBRANCH  14  22
BRANCH  17  24
ATOM     24  O5  UNK B   0      40.019  17.544 196.544  0.00  0.00    +0.000 OA
ATOM     25  H35 UNK B   0      40.157  16.651 196.181  0.00  0.00    +0.000 HD
ENDBRANCH  17  24
TORSDOF 4
REMARK  Name = KETCA.pdb
REMARK  8 active torsions:
REMARK  status: ('A' for Active; 'I' for Inactive)
REMARK    1  A    between atoms: O5_5  and  C16_16
REMARK    2  A    between atoms: O5_5  and  C24_24
REMARK    3  A    between atoms: N7_7  and  C21_21
REMARK    4  A    between atoms: N9_9  and  C14_14
REMARK    5  A    between atoms: C11_11  and  C14_14
REMARK    6  A    between atoms: C11_11  and  C15_15
REMARK    7  A    between atoms: C12_12  and  C16_16
REMARK    8  A    between atoms: C25_25  and  C36_36
REMARK                            x       y       z     vdW  Elec       q    Type
REMARK                         _______ _______ _______ _____ _____    ______ ____
ROOT
ATOM      1  O3  UNK K   1      37.057  17.808 200.774  0.00  0.00    +0.000 OA
ATOM      2  O4  UNK K   1      35.540  18.663 202.323  0.00  0.00    +0.000 OA
ATOM      3  C11 UNK K   1      36.779  19.007 201.650  0.00  0.00    +0.000 C 
ATOM      4  C12 UNK K   1      36.003  16.827 201.115  0.00  0.00    +0.000 C 
ATOM      5  C13 UNK K   1      35.745  17.214 202.572  0.00  0.00    +0.000 C 
ENDROOT
BRANCH   3   8
ATOM      6 CL1  UNK K   1      35.755  21.936 202.710  0.00  0.00    +0.000 Cl
ATOM      7 CL2  UNK K   1      37.017  23.882 197.890  0.00  0.00    +0.000 Cl
ATOM      8  C15 UNK K   1      36.763  20.335 200.770  0.00  0.00    +0.000 A 
ATOM      9  C22 UNK K   1      36.399  21.576 201.167  0.00  0.00    +0.000 A 
ATOM     10  C23 UNK K   1      37.288  20.187 199.395  0.00  0.00    +0.000 A 
ATOM     11  C32 UNK K   1      36.461  22.707 200.213  0.00  0.00    +0.000 A 
ATOM     12  C33 UNK K   1      37.337  21.216 198.549  0.00  0.00    +0.000 A 
ATOM     13  C34 UNK K   1      36.930  22.538 198.982  0.00  0.00    +0.000 A 
ENDBRANCH   3   8
BRANCH   3  14
ATOM     14  C14 UNK K   1      37.893  19.062 202.800  0.00  0.00    +0.000 C 
BRANCH  14  15
ATOM     15  N9  UNK K   1      39.198  18.405 202.513  0.00  0.00    +0.000 N 
ATOM     16  N10 UNK K   1      40.863  17.043 202.733  0.00  0.00    +0.000 NA
ATOM     17  C28 UNK K   1      40.247  18.969 201.786  0.00  0.00    +0.000 A 
ATOM     18  C29 UNK K   1      39.649  17.218 203.098  0.00  0.00    +0.000 A 
ATOM     19  C35 UNK K   1      41.271  18.123 201.907  0.00  0.00    +0.000 A 
ENDBRANCH  14  15
ENDBRANCH   3  14
BRANCH   4  20
ATOM     20  C16 UNK K   1      36.364  15.248 200.746  0.00  0.00    +0.000 C 
BRANCH  20  21
ATOM     21  O5  UNK K   1      35.202  14.452 200.192  0.00  0.00    +0.000 OA
BRANCH  21  23
ATOM     22  C21 UNK K   1      33.891  14.968 195.991  0.00  0.00    +0.000 A 
ATOM     23  C24 UNK K   1      34.806  14.574 198.730  0.00  0.00    +0.000 A 
ATOM     24  C26 UNK K   1      34.993  14.242 196.255  0.00  0.00    +0.000 A 
ATOM     25  C27 UNK K   1      33.165  15.546 197.134  0.00  0.00    +0.000 A 
ATOM     26  C30 UNK K   1      35.474  14.021 197.703  0.00  0.00    +0.000 A 
ATOM     27  C31 UNK K   1      33.590  15.374 198.397  0.00  0.00    +0.000 A 
BRANCH  22  29
ATOM     28  O6  UNK K   1      31.747  14.909 189.815  0.00  0.00    +0.000 OA
ATOM     29  N7  UNK K   1      33.403  15.218 194.607  0.00  0.00    +0.000 N 
ATOM     30  N8  UNK K   1      32.569  15.656 191.846  0.00  0.00    +0.000 N 
ATOM     31  C17 UNK K   1      32.307  14.450 194.033  0.00  0.00    +0.000 C 
ATOM     32  C18 UNK K   1      34.050  16.227 193.771  0.00  0.00    +0.000 C 
ATOM     33  C19 UNK K   1      32.444  14.347 192.455  0.00  0.00    +0.000 C 
ATOM     34  C20 UNK K   1      33.090  16.752 192.632  0.00  0.00    +0.000 C 
ATOM     35  C25 UNK K   1      32.182  15.856 190.482  0.00  0.00    +0.000 C 
ATOM     36  C36 UNK K   1      32.268  17.224 189.846  0.00  0.00    +0.000 C 
ENDBRANCH  22  29
ENDBRANCH  21  23
ENDBRANCH  20  21
ENDBRANCH   4  20
TORSDOF 7
ENDMDL
MODEL 4
REMARK VINA RESULT:    -4.183      5.751     10.103
REMARK INTER + INTRA:          -7.559
REMARK INTER:                  -6.387
REMARK INTRA:                  -1.172
REMARK UNBOUND:                -1.176
REMARK  Name = BCBL.pdb
REMARK  4 active torsions:
REMARK  status: ('A' for Active; 'I' for Inactive)
REMARK    1  A    between atoms: O1_1  and  C6_6
REMARK    2  A    between atoms: O3_3  and  C17_17
REMARK    3  A    between atoms: O4_4  and  C18_18
REMARK    4  A    between atoms: O5_5  and  C21_21
REMARK                            x       y       z     vdW  Elec       q    Type
REMARK                         _______ _______ _______ _____ _____    ______ ____
ROOT
ATOM      1  O2  UNK B   0      41.489  15.518 194.819  0.00  0.00    +0.000 OA
ATOM      2  C6  UNK B   0      40.505  15.594 197.061  0.00  0.00    +0.000 C 
ATOM      3  C7  UNK B   0      39.990  17.046 196.838  0.00  0.00    +0.000 C 
ATOM      4  C8  UNK B   0      39.334  14.629 196.750  0.00  0.00    +0.000 C 
ATOM      5  C9  UNK B   0      38.505  16.855 197.046  0.00  0.00    +0.000 A 
ATOM      6  C10 UNK B   0      38.146  15.504 196.995  0.00  0.00    +0.000 A 
ATOM      7  C11 UNK B   0      41.734  15.305 196.209  0.00  0.00    +0.000 C 
ATOM      8  C12 UNK B   0      40.359  17.578 195.472  0.00  0.00    +0.000 A 
ATOM      9  C13 UNK B   0      41.058  16.790 194.546  0.00  0.00    +0.000 A 
ATOM     10  C14 UNK B   0      37.544  17.828 197.283  0.00  0.00    +0.000 A 
ATOM     11  C15 UNK B   0      36.826  15.103 197.140  0.00  0.00    +0.000 A 
ATOM     12  C16 UNK B   0      40.012  18.888 195.102  0.00  0.00    +0.000 A 
ATOM     13  C17 UNK B   0      36.213  17.433 197.441  0.00  0.00    +0.000 A 
ATOM     14  C18 UNK B   0      35.856  16.080 197.366  0.00  0.00    +0.000 A 
ATOM     15  C19 UNK B   0      41.336  17.269 193.262  0.00  0.00    +0.000 A 
ATOM     16  C20 UNK B   0      40.309  19.374 193.827  0.00  0.00    +0.000 A 
ATOM     17  C21 UNK B   0      40.962  18.562 192.904  0.00  0.00    +0.000 A 
ENDROOT
BRANCH   2  18
ATOM     18  O1  UNK B   0      40.898  15.431 198.429  0.00  0.00    +0.000 OA
ATOM     19  H28 UNK B   0      40.730  16.268 198.895  0.00  0.00    +0.000 HD
ENDBRANCH   2  18
BRANCH  13  20
ATOM     20  O3  UNK B   0      35.261  18.382 197.670  0.00  0.00    +0.000 OA
ATOM     21  H33 UNK B   0      34.466  17.954 198.030  0.00  0.00    +0.000 HD
ENDBRANCH  13  20
BRANCH  14  22
ATOM     22  O4  UNK B   0      34.555  15.702 197.518  0.00  0.00    +0.000 OA
ATOM     23  H34 UNK B   0      34.521  14.900 198.066  0.00  0.00    +0.000 HD
ENDBRANCH  14  22
BRANCH  17  24
ATOM     24  O5  UNK B   0      41.241  19.033 191.658  0.00  0.00    +0.000 OA
ATOM     25  H35 UNK B   0      40.415  19.337 191.244  0.00  0.00    +0.000 HD
ENDBRANCH  17  24
TORSDOF 4
REMARK  Name = KETCA.pdb
REMARK  8 active torsions:
REMARK  status: ('A' for Active; 'I' for Inactive)
REMARK    1  A    between atoms: O5_5  and  C16_16
REMARK    2  A    between atoms: O5_5  and  C24_24
REMARK    3  A    between atoms: N7_7  and  C21_21
REMARK    4  A    between atoms: N9_9  and  C14_14
REMARK    5  A    between atoms: C11_11  and  C14_14
REMARK    6  A    between atoms: C11_11  and  C15_15
REMARK    7  A    between atoms: C12_12  and  C16_16
REMARK    8  A    between atoms: C25_25  and  C36_36
REMARK                            x       y       z     vdW  Elec       q    Type
REMARK                         _______ _______ _______ _____ _____    ______ ____
ROOT
ATOM      1  O3  UNK K   1      36.802  20.082 194.060  0.00  0.00    +0.000 OA
ATOM      2  O4  UNK K   1      34.801  19.744 195.207  0.00  0.00    +0.000 OA
ATOM      3  C11 UNK K   1      35.499  19.319 194.008  0.00  0.00    +0.000 C 
ATOM      4  C12 UNK K   1      36.681  20.971 195.236  0.00  0.00    +0.000 C 
ATOM      5  C13 UNK K   1      35.167  21.182 195.253  0.00  0.00    +0.000 C 
ENDROOT
BRANCH   3   8
ATOM      6 CL1  UNK K   1      33.235  16.971 194.341  0.00  0.00    +0.000 Cl
ATOM      7 CL2  UNK K   1      37.080  13.410 193.272  0.00  0.00    +0.000 Cl
ATOM      8  C15 UNK K   1      35.785  17.757 193.871  0.00  0.00    +0.000 A 
ATOM      9  C22 UNK K   1      34.885  16.749 193.949  0.00  0.00    +0.000 A 
ATOM     10  C23 UNK K   1      37.180  17.398 193.536  0.00  0.00    +0.000 A 
ATOM     11  C32 UNK K   1      35.327  15.347 193.780  0.00  0.00    +0.000 A 
ATOM     12  C33 UNK K   1      37.562  16.129 193.388  0.00  0.00    +0.000 A 
ATOM     13  C34 UNK K   1      36.591  15.059 193.489  0.00  0.00    +0.000 A 
ENDBRANCH   3   8
BRANCH   3  14
ATOM     14  C14 UNK K   1      34.633  19.881 192.784  0.00  0.00    +0.000 C 
BRANCH  14  15
ATOM     15  N9  UNK K   1      35.381  20.430 191.618  0.00  0.00    +0.000 N 
ATOM     16  N10 UNK K   1      36.724  20.480 189.925  0.00  0.00    +0.000 NA
ATOM     17  C28 UNK K   1      35.660  21.779 191.397  0.00  0.00    +0.000 A 
ATOM     18  C29 UNK K   1      36.090  19.669 190.684  0.00  0.00    +0.000 A 
ATOM     19  C35 UNK K   1      36.477  21.815 190.343  0.00  0.00    +0.000 A 
ENDBRANCH  14  15
ENDBRANCH   3  14
BRANCH   4  20
ATOM     20  C16 UNK K   1      37.685  22.296 195.223  0.00  0.00    +0.000 C 
BRANCH  20  21
ATOM     21  O5  UNK K   1      38.276  22.648 196.571  0.00  0.00    +0.000 OA
BRANCH  21  23
ATOM     22  C21 UNK K   1      41.647  20.319 198.258  0.00  0.00    +0.000 A 
ATOM     23  C24 UNK K   1      39.482  21.897 197.110  0.00  0.00    +0.000 A 
ATOM     24  C26 UNK K   1      41.885  21.213 197.281  0.00  0.00    +0.000 A 
ATOM     25  C27 UNK K   1      40.259  20.175 198.727  0.00  0.00    +0.000 A 
ATOM     26  C30 UNK K   1      40.745  22.058 196.679  0.00  0.00    +0.000 A 
ATOM     27  C31 UNK K   1      39.258  20.894 198.193  0.00  0.00    +0.000 A 
BRANCH  22  29
ATOM     28  O6  UNK K   1      46.852  17.611 201.142  0.00  0.00    +0.000 OA
ATOM     29  N7  UNK K   1      42.717  19.473 198.854  0.00  0.00    +0.000 N 
ATOM     30  N8  UNK K   1      44.901  17.860 199.921  0.00  0.00    +0.000 N 
ATOM     31  C17 UNK K   1      43.294  19.775 200.156  0.00  0.00    +0.000 C 
ATOM     32  C18 UNK K   1      43.245  18.328 198.115  0.00  0.00    +0.000 C 
ATOM     33  C19 UNK K   1      44.795  19.267 200.251  0.00  0.00    +0.000 C 
ATOM     34  C20 UNK K   1      43.896  17.256 199.076  0.00  0.00    +0.000 C 
ATOM     35  C25 UNK K   1      45.991  17.082 200.428  0.00  0.00    +0.000 C 
ATOM     36  C36 UNK K   1      46.093  15.605 200.127  0.00  0.00    +0.000 C 
ENDBRANCH  22  29
ENDBRANCH  21  23
ENDBRANCH  20  21
ENDBRANCH   4  20
TORSDOF 7
ENDMDL
MODEL 5
REMARK VINA RESULT:    -4.182      5.075      7.281
REMARK INTER + INTRA:          -7.559
REMARK INTER:                  -6.383
REMARK INTRA:                  -1.176
REMARK UNBOUND:                -1.176
REMARK  Name = BCBL.pdb
REMARK  4 active torsions:
REMARK  status: ('A' for Active; 'I' for Inactive)
REMARK    1  A    between atoms: O1_1  and  C6_6
REMARK    2  A    between atoms: O3_3  and  C17_17
REMARK    3  A    between atoms: O4_4  and  C18_18
REMARK    4  A    between atoms: O5_5  and  C21_21
REMARK                            x       y       z     vdW  Elec       q    Type
REMARK                         _______ _______ _______ _____ _____    ______ ____
ROOT
ATOM      1  O2  UNK B   0      42.546  14.898 192.073  0.00  0.00    +0.000 OA
ATOM      2  C6  UNK B   0      43.942  15.910 193.814  0.00  0.00    +0.000 C 
ATOM      3  C7  UNK B   0      42.700  16.206 194.704  0.00  0.00    +0.000 C 
ATOM      4  C8  UNK B   0      44.564  14.580 194.307  0.00  0.00    +0.000 C 
ATOM      5  C9  UNK B   0      43.061  15.442 195.958  0.00  0.00    +0.000 A 
ATOM      6  C10 UNK B   0      44.101  14.537 195.728  0.00  0.00    +0.000 A 
ATOM      7  C11 UNK B   0      43.566  15.860 192.338  0.00  0.00    +0.000 C 
ATOM      8  C12 UNK B   0      41.412  15.754 194.054  0.00  0.00    +0.000 A 
ATOM      9  C13 UNK B   0      41.408  15.116 192.805  0.00  0.00    +0.000 A 
ATOM     10  C14 UNK B   0      42.504  15.566 197.223  0.00  0.00    +0.000 A 
ATOM     11  C15 UNK B   0      44.578  13.716 196.740  0.00  0.00    +0.000 A 
ATOM     12  C16 UNK B   0      40.180  15.972 194.692  0.00  0.00    +0.000 A 
ATOM     13  C17 UNK B   0      42.985  14.751 198.251  0.00  0.00    +0.000 A 
ATOM     14  C18 UNK B   0      44.012  13.829 198.010  0.00  0.00    +0.000 A 
ATOM     15  C19 UNK B   0      40.218  14.643 192.245  0.00  0.00    +0.000 A 
ATOM     16  C20 UNK B   0      38.988  15.519 194.122  0.00  0.00    +0.000 A 
ATOM     17  C21 UNK B   0      39.008  14.846 192.904  0.00  0.00    +0.000 A 
ENDROOT
BRANCH   2  18
ATOM     18  O1  UNK B   0      44.901  16.963 193.966  0.00  0.00    +0.000 OA
ATOM     19  H28 UNK B   0      44.785  17.356 194.847  0.00  0.00    +0.000 HD
ENDBRANCH   2  18
BRANCH  13  20
ATOM     20  O3  UNK B   0      42.441  14.863 199.497  0.00  0.00    +0.000 OA
ATOM     21  H33 UNK B   0      42.351  15.805 199.720  0.00  0.00    +0.000 HD
ENDBRANCH  13  20
BRANCH  14  22
ATOM     22  O4  UNK B   0      44.473  13.034 199.016  0.00  0.00    +0.000 OA
ATOM     23  H34 UNK B   0      43.839  13.057 199.754  0.00  0.00    +0.000 HD
ENDBRANCH  14  22
BRANCH  17  24
ATOM     24  O5  UNK B   0      37.848  14.396 192.354  0.00  0.00    +0.000 OA
ATOM     25  H35 UNK B   0      38.060  13.829 191.591  0.00  0.00    +0.000 HD
ENDBRANCH  17  24
TORSDOF 4
REMARK  Name = KETCA.pdb
REMARK  8 active torsions:
REMARK  status: ('A' for Active; 'I' for Inactive)
REMARK    1  A    between atoms: O5_5  and  C16_16
REMARK    2  A    between atoms: O5_5  and  C24_24
REMARK    3  A    between atoms: N7_7  and  C21_21
REMARK    4  A    between atoms: N9_9  and  C14_14
REMARK    5  A    between atoms: C11_11  and  C14_14
REMARK    6  A    between atoms: C11_11  and  C15_15
REMARK    7  A    between atoms: C12_12  and  C16_16
REMARK    8  A    between atoms: C25_25  and  C36_36
REMARK                            x       y       z     vdW  Elec       q    Type
REMARK                         _______ _______ _______ _____ _____    ______ ____
ROOT
ATOM      1  O3  UNK K   1      38.816  14.198 197.496  0.00  0.00    +0.000 OA
ATOM      2  O4  UNK K   1      39.879  13.634 199.493  0.00  0.00    +0.000 OA
ATOM      3  C11 UNK K   1      39.413  13.036 198.255  0.00  0.00    +0.000 C 
ATOM      4  C12 UNK K   1      38.890  15.346 198.427  0.00  0.00    +0.000 C 
ATOM      5  C13 UNK K   1      38.792  14.609 199.763  0.00  0.00    +0.000 C 
ENDROOT
BRANCH   3   8
ATOM      6 CL1  UNK K   1      41.569  10.835 199.377  0.00  0.00    +0.000 Cl
ATOM      7 CL2  UNK K   1      43.411  10.407 194.374  0.00  0.00    +0.000 Cl
ATOM      8  C15 UNK K   1      40.514  12.308 197.362  0.00  0.00    +0.000 A 
ATOM      9  C22 UNK K   1      41.393  11.359 197.758  0.00  0.00    +0.000 A 
ATOM     10  C23 UNK K   1      40.496  12.662 195.926  0.00  0.00    +0.000 A 
ATOM     11  C32 UNK K   1      42.342  10.776 196.783  0.00  0.00    +0.000 A 
ATOM     12  C33 UNK K   1      41.359  12.127 195.061  0.00  0.00    +0.000 A 
ATOM     13  C34 UNK K   1      42.306  11.123 195.502  0.00  0.00    +0.000 A 
ENDBRANCH   3   8
BRANCH   3  14
ATOM     14  C14 UNK K   1      38.228  12.044 198.675  0.00  0.00    +0.000 C 
BRANCH  14  15
ATOM     15  N9  UNK K   1      37.018  12.024 197.806  0.00  0.00    +0.000 N 
ATOM     16  N10 UNK K   1      35.814  11.750 196.031  0.00  0.00    +0.000 NA
ATOM     17  C28 UNK K   1      35.848  12.749 198.029  0.00  0.00    +0.000 A 
ATOM     18  C29 UNK K   1      36.948  11.442 196.537  0.00  0.00    +0.000 A 
ATOM     19  C35 UNK K   1      35.095  12.570 196.942  0.00  0.00    +0.000 A 
ENDBRANCH  14  15
ENDBRANCH   3  14
BRANCH   4  20
ATOM     20  C16 UNK K   1      37.830  16.584 198.103  0.00  0.00    +0.000 C 
BRANCH  20  21
ATOM     21  O5  UNK K   1      38.426  17.970 198.234  0.00  0.00    +0.000 OA
BRANCH  21  23
ATOM     22  C21 UNK K   1      40.943  19.691 195.019  0.00  0.00    +0.000 A 
ATOM     23  C24 UNK K   1      39.223  18.583 197.095  0.00  0.00    +0.000 A 
ATOM     24  C26 UNK K   1      39.612  19.598 194.839  0.00  0.00    +0.000 A 
ATOM     25  C27 UNK K   1      41.492  19.221 196.302  0.00  0.00    +0.000 A 
ATOM     26  C30 UNK K   1      38.697  19.024 195.939  0.00  0.00    +0.000 A 
ATOM     27  C31 UNK K   1      40.702  18.700 197.256  0.00  0.00    +0.000 A 
BRANCH  22  29
ATOM     28  O6  UNK K   1      45.483  20.995 190.499  0.00  0.00    +0.000 OA
ATOM     29  N7  UNK K   1      41.862  20.225 193.977  0.00  0.00    +0.000 N 
ATOM     30  N8  UNK K   1      43.768  21.267 192.030  0.00  0.00    +0.000 N 
ATOM     31  C17 UNK K   1      42.236  19.437 192.811  0.00  0.00    +0.000 C 
ATOM     32  C18 UNK K   1      42.447  21.556 194.127  0.00  0.00    +0.000 C 
ATOM     33  C19 UNK K   1      43.676  19.843 192.282  0.00  0.00    +0.000 C 
ATOM     34  C20 UNK K   1      42.884  22.166 192.737  0.00  0.00    +0.000 C 
ATOM     35  C25 UNK K   1      44.725  21.772 191.091  0.00  0.00    +0.000 C 
ATOM     36  C36 UNK K   1      44.803  23.250 190.788  0.00  0.00    +0.000 C 
ENDBRANCH  22  29
ENDBRANCH  21  23
ENDBRANCH  20  21
ENDBRANCH   4  20
TORSDOF 7
ENDMDL
MODEL 6
REMARK VINA RESULT:    -4.182      4.880      8.932
REMARK INTER + INTRA:          -7.558
REMARK INTER:                  -6.378
REMARK INTRA:                  -1.180
REMARK UNBOUND:                -1.176
REMARK  Name = BCBL.pdb
REMARK  4 active torsions:
REMARK  status: ('A' for Active; 'I' for Inactive)
REMARK    1  A    between atoms: O1_1  and  C6_6
REMARK    2  A    between atoms: O3_3  and  C17_17
REMARK    3  A    between atoms: O4_4  and  C18_18
REMARK    4  A    between atoms: O5_5  and  C21_21
REMARK                            x       y       z     vdW  Elec       q    Type
REMARK                         _______ _______ _______ _____ _____    ______ ____
ROOT
ATOM      1  O2  UNK B   0      41.555  13.818 194.739  0.00  0.00    +0.000 OA
ATOM      2  C6  UNK B   0      42.095  11.434 194.917  0.00  0.00    +0.000 C 
ATOM      3  C7  UNK B   0      40.612  11.072 195.220  0.00  0.00    +0.000 C 
ATOM      4  C8  UNK B   0      42.330  11.215 193.402  0.00  0.00    +0.000 C 
ATOM      5  C9  UNK B   0      40.316  10.118 194.085  0.00  0.00    +0.000 A 
ATOM      6  C10 UNK B   0      41.278  10.204 193.075  0.00  0.00    +0.000 A 
ATOM      7  C11 UNK B   0      42.417  12.859 195.351  0.00  0.00    +0.000 C 
ATOM      8  C12 UNK B   0      39.721  12.293 195.249  0.00  0.00    +0.000 A 
ATOM      9  C13 UNK B   0      40.229  13.575 194.990  0.00  0.00    +0.000 A 
ATOM     10  C14 UNK B   0      39.263   9.220 193.978  0.00  0.00    +0.000 A 
ATOM     11  C15 UNK B   0      41.189   9.429 191.928  0.00  0.00    +0.000 A 
ATOM     12  C16 UNK B   0      38.354  12.169 195.544  0.00  0.00    +0.000 A 
ATOM     13  C17 UNK B   0      39.170   8.428 192.831  0.00  0.00    +0.000 A 
ATOM     14  C18 UNK B   0      40.125   8.535 191.811  0.00  0.00    +0.000 A 
ATOM     15  C19 UNK B   0      39.384  14.688 194.953  0.00  0.00    +0.000 A 
ATOM     16  C20 UNK B   0      37.513  13.284 195.530  0.00  0.00    +0.000 A 
ATOM     17  C21 UNK B   0      38.026  14.541 195.225  0.00  0.00    +0.000 A 
ENDROOT
BRANCH   2  18
ATOM     18  O1  UNK B   0      42.960  10.566 195.658  0.00  0.00    +0.000 OA
ATOM     19  H28 UNK B   0      43.625  10.206 195.046  0.00  0.00    +0.000 HD
ENDBRANCH   2  18
BRANCH  13  20
ATOM     20  O3  UNK B   0      38.136   7.546 192.714  0.00  0.00    +0.000 OA
ATOM     21  H33 UNK B   0      37.635   7.534 193.547  0.00  0.00    +0.000 HD
ENDBRANCH  13  20
BRANCH  14  22
ATOM     22  O4  UNK B   0      40.026   7.761 190.693  0.00  0.00    +0.000 OA
ATOM     23  H34 UNK B   0      40.303   6.855 190.909  0.00  0.00    +0.000 HD
ENDBRANCH  14  22
BRANCH  17  24
ATOM     24  O5  UNK B   0      37.204  15.626 195.201  0.00  0.00    +0.000 OA
ATOM     25  H35 UNK B   0      36.326  15.363 195.528  0.00  0.00    +0.000 HD
ENDBRANCH  17  24
TORSDOF 4
REMARK  Name = KETCA.pdb
REMARK  8 active torsions:
REMARK  status: ('A' for Active; 'I' for Inactive)
REMARK    1  A    between atoms: O5_5  and  C16_16
REMARK    2  A    between atoms: O5_5  and  C24_24
REMARK    3  A    between atoms: N7_7  and  C21_21
REMARK    4  A    between atoms: N9_9  and  C14_14
REMARK    5  A    between atoms: C11_11  and  C14_14
REMARK    6  A    between atoms: C11_11  and  C15_15
REMARK    7  A    between atoms: C12_12  and  C16_16
REMARK    8  A    between atoms: C25_25  and  C36_36
REMARK                            x       y       z     vdW  Elec       q    Type
REMARK                         _______ _______ _______ _____ _____    ______ ____
ROOT
ATOM      1  O3  UNK K   1      35.746  11.001 193.373  0.00  0.00    +0.000 OA
ATOM      2  O4  UNK K   1      35.786   9.036 192.120  0.00  0.00    +0.000 OA
ATOM      3  C11 UNK K   1      35.876  10.476 191.963  0.00  0.00    +0.000 C 
ATOM      4  C12 UNK K   1      35.474   9.809 194.206  0.00  0.00    +0.000 C 
ATOM      5  C13 UNK K   1      34.753   8.931 193.181  0.00  0.00    +0.000 C 
ENDROOT
BRANCH   3   8
ATOM      6 CL1  UNK K   1      37.141   9.389 189.139  0.00  0.00    +0.000 Cl
ATOM      7 CL2  UNK K   1      41.011  13.035 189.718  0.00  0.00    +0.000 Cl
ATOM      8  C15 UNK K   1      37.210  11.033 191.292  0.00  0.00    +0.000 A 
ATOM      9  C22 UNK K   1      37.751  10.659 190.110  0.00  0.00    +0.000 A 
ATOM     10  C23 UNK K   1      37.867  12.141 192.020  0.00  0.00    +0.000 A 
ATOM     11  C32 UNK K   1      38.997  11.298 189.630  0.00  0.00    +0.000 A 
ATOM     12  C33 UNK K   1      38.989  12.705 191.574  0.00  0.00    +0.000 A 
ATOM     13  C34 UNK K   1      39.566  12.285 190.313  0.00  0.00    +0.000 A 
ENDBRANCH   3   8
BRANCH   3  14
ATOM     14  C14 UNK K   1      34.568  10.902 191.142  0.00  0.00    +0.000 C 
BRANCH  14  15
ATOM     15  N9  UNK K   1      33.878  12.153 191.565  0.00  0.00    +0.000 N 
ATOM     16  N10 UNK K   1      33.581  14.256 191.966  0.00  0.00    +0.000 NA
ATOM     17  C28 UNK K   1      32.782  12.222 192.425  0.00  0.00    +0.000 A 
ATOM     18  C29 UNK K   1      34.346  13.449 191.333  0.00  0.00    +0.000 A 
ATOM     19  C35 UNK K   1      32.586  13.520 192.662  0.00  0.00    +0.000 A 
ENDBRANCH  14  15
ENDBRANCH   3  14
BRANCH   4  20
ATOM     20  C16 UNK K   1      34.743  10.121 195.665  0.00  0.00    +0.000 C 
BRANCH  20  21
ATOM     21  O5  UNK K   1      35.268   9.295 196.819  0.00  0.00    +0.000 OA
BRANCH  21  23
ATOM     22  C21 UNK K   1      39.112  10.303 198.779  0.00  0.00    +0.000 A 
ATOM     23  C24 UNK K   1      36.547   9.691 197.538  0.00  0.00    +0.000 A 
ATOM     24  C26 UNK K   1      38.023  11.051 199.037  0.00  0.00    +0.000 A 
ATOM     25  C27 UNK K   1      38.956   9.165 197.858  0.00  0.00    +0.000 A 
ATOM     26  C30 UNK K   1      36.662  10.724 198.391  0.00  0.00    +0.000 A 
ATOM     27  C31 UNK K   1      37.777   8.887 197.277  0.00  0.00    +0.000 A 
BRANCH  22  29
ATOM     28  O6  UNK K   1      45.326  11.683 200.274  0.00  0.00    +0.000 OA
ATOM     29  N7  UNK K   1      40.447  10.594 199.370  0.00  0.00    +0.000 N 
ATOM     30  N8  UNK K   1      43.110  11.041 200.474  0.00  0.00    +0.000 N 
ATOM     31  C17 UNK K   1      41.280  11.683 198.880  0.00  0.00    +0.000 C 
ATOM     32  C18 UNK K   1      40.974   9.753 200.444  0.00  0.00    +0.000 C 
ATOM     33  C19 UNK K   1      42.821  11.368 199.092  0.00  0.00    +0.000 C 
ATOM     34  C20 UNK K   1      42.055  10.513 201.309  0.00  0.00    +0.000 C 
ATOM     35  C25 UNK K   1      44.427  11.240 201.000  0.00  0.00    +0.000 C 
ATOM     36  C36 UNK K   1      44.734  10.943 202.449  0.00  0.00    +0.000 C 
ENDBRANCH  22  29
ENDBRANCH  21  23
ENDBRANCH  20  21
ENDBRANCH   4  20
TORSDOF 7
ENDMDL
MODEL 7
REMARK VINA RESULT:    -4.182      4.826      7.156
REMARK INTER + INTRA:          -7.558
REMARK INTER:                  -6.368
REMARK INTRA:                  -1.189
REMARK UNBOUND:                -1.176
REMARK  Name = BCBL.pdb
REMARK  4 active torsions:
REMARK  status: ('A' for Active; 'I' for Inactive)
REMARK    1  A    between atoms: O1_1  and  C6_6
REMARK    2  A    between atoms: O3_3  and  C17_17
REMARK    3  A    between atoms: O4_4  and  C18_18
REMARK    4  A    between atoms: O5_5  and  C21_21
REMARK                            x       y       z     vdW  Elec       q    Type
REMARK                         _______ _______ _______ _____ _____    ______ ____
ROOT
ATOM      1  O2  UNK B   0      41.780  14.563 191.864  0.00  0.00    +0.000 OA
ATOM      2  C6  UNK B   0      41.451  16.887 192.566  0.00  0.00    +0.000 C 
ATOM      3  C7  UNK B   0      40.835  16.440 193.923  0.00  0.00    +0.000 C 
ATOM      4  C8  UNK B   0      42.950  17.189 192.810  0.00  0.00    +0.000 C 
ATOM      5  C9  UNK B   0      41.782  17.103 194.897  0.00  0.00    +0.000 A 
ATOM      6  C10 UNK B   0      42.960  17.518 194.269  0.00  0.00    +0.000 A 
ATOM      7  C11 UNK B   0      41.242  15.830 191.488  0.00  0.00    +0.000 C 
ATOM      8  C12 UNK B   0      40.770  14.935 194.052  0.00  0.00    +0.000 A 
ATOM      9  C13 UNK B   0      41.258  14.094 193.041  0.00  0.00    +0.000 A 
ATOM     10  C14 UNK B   0      41.590  17.334 196.252  0.00  0.00    +0.000 A 
ATOM     11  C15 UNK B   0      43.978  18.133 194.982  0.00  0.00    +0.000 A 
ATOM     12  C16 UNK B   0      40.208  14.343 195.195  0.00  0.00    +0.000 A 
ATOM     13  C17 UNK B   0      42.605  17.963 196.976  0.00  0.00    +0.000 A 
ATOM     14  C18 UNK B   0      43.794  18.355 196.347  0.00  0.00    +0.000 A 
ATOM     15  C19 UNK B   0      41.254  12.705 193.200  0.00  0.00    +0.000 A 
ATOM     16  C20 UNK B   0      40.184  12.954 195.344  0.00  0.00    +0.000 A 
ATOM     17  C21 UNK B   0      40.715  12.136 194.351  0.00  0.00    +0.000 A 
ENDROOT
BRANCH   2  18
ATOM     18  O1  UNK B   0      40.798  18.079 192.114  0.00  0.00    +0.000 OA
ATOM     19  H28 UNK B   0      40.005  18.217 192.659  0.00  0.00    +0.000 HD
ENDBRANCH   2  18
BRANCH  13  20
ATOM     20  O3  UNK B   0      42.428  18.190 198.310  0.00  0.00    +0.000 OA
ATOM     21  H33 UNK B   0      41.533  18.542 198.454  0.00  0.00    +0.000 HD
ENDBRANCH  13  20
BRANCH  14  22
ATOM     22  O4  UNK B   0      44.782  18.964 197.061  0.00  0.00    +0.000 OA
ATOM     23  H34 UNK B   0      44.425  19.770 197.472  0.00  0.00    +0.000 HD
ENDBRANCH  14  22
BRANCH  17  24
ATOM     24  O5  UNK B   0      40.701  10.784 194.502  0.00  0.00    +0.000 OA
ATOM     25  H35 UNK B   0      41.542  10.421 194.173  0.00  0.00    +0.000 HD
ENDBRANCH  17  24
TORSDOF 4
REMARK  Name = KETCA.pdb
REMARK  8 active torsions:
REMARK  status: ('A' for Active; 'I' for Inactive)
REMARK    1  A    between atoms: O5_5  and  C16_16
REMARK    2  A    between atoms: O5_5  and  C24_24
REMARK    3  A    between atoms: N7_7  and  C21_21
REMARK    4  A    between atoms: N9_9  and  C14_14
REMARK    5  A    between atoms: C11_11  and  C14_14
REMARK    6  A    between atoms: C11_11  and  C15_15
REMARK    7  A    between atoms: C12_12  and  C16_16
REMARK    8  A    between atoms: C25_25  and  C36_36
REMARK                            x       y       z     vdW  Elec       q    Type
REMARK                         _______ _______ _______ _____ _____    ______ ____
ROOT
ATOM      1  O3  UNK K   1      41.712  13.958 198.434  0.00  0.00    +0.000 OA
ATOM      2  O4  UNK K   1      42.689  15.692 199.647  0.00  0.00    +0.000 OA
ATOM      3  C11 UNK K   1      43.043  14.500 198.897  0.00  0.00    +0.000 C 
ATOM      4  C12 UNK K   1      40.698  14.832 199.064  0.00  0.00    +0.000 C 
ATOM      5  C13 UNK K   1      41.452  15.239 200.331  0.00  0.00    +0.000 C 
ENDROOT
BRANCH   3   8
ATOM      6 CL1  UNK K   1      45.909  16.090 199.007  0.00  0.00    +0.000 Cl
ATOM      7 CL2  UNK K   1      46.495  14.952 193.814  0.00  0.00    +0.000 Cl
ATOM      8  C15 UNK K   1      44.012  14.711 197.650  0.00  0.00    +0.000 A 
ATOM      9  C22 UNK K   1      45.224  15.313 197.646  0.00  0.00    +0.000 A 
ATOM     10  C23 UNK K   1      43.554  14.096 196.385  0.00  0.00    +0.000 A 
ATOM     11  C32 UNK K   1      46.000  15.406 196.389  0.00  0.00    +0.000 A 
ATOM     12  C33 UNK K   1      44.266  14.190 195.261  0.00  0.00    +0.000 A 
ATOM     13  C34 UNK K   1      45.556  14.851 195.268  0.00  0.00    +0.000 A 
ENDBRANCH   3   8
BRANCH   3  14
ATOM     14  C14 UNK K   1      43.658  13.483 199.971  0.00  0.00    +0.000 C 
BRANCH  14  15
ATOM     15  N9  UNK K   1      43.321  12.041 199.810  0.00  0.00    +0.000 N 
ATOM     16  N10 UNK K   1      42.570  10.076 200.310  0.00  0.00    +0.000 NA
ATOM     17  C28 UNK K   1      43.921  11.165 198.905  0.00  0.00    +0.000 A 
ATOM     18  C29 UNK K   1      42.509  11.302 200.674  0.00  0.00    +0.000 A 
ATOM     19  C35 UNK K   1      43.448   9.954 199.201  0.00  0.00    +0.000 A 
ENDBRANCH  14  15
ENDBRANCH   3  14
BRANCH   4  20
ATOM     20  C16 UNK K   1      39.181  14.167 199.200  0.00  0.00    +0.000 C 
BRANCH  20  21
ATOM     21  O5  UNK K   1      38.046  15.135 198.943  0.00  0.00    +0.000 OA
BRANCH  21  23
ATOM     22  C21 UNK K   1      36.984  16.345 194.815  0.00  0.00    +0.000 A 
ATOM     23  C24 UNK K   1      37.634  15.487 197.524  0.00  0.00    +0.000 A 
ATOM     24  C26 UNK K   1      36.585  15.144 195.276  0.00  0.00    +0.000 A 
ATOM     25  C27 UNK K   1      37.749  17.207 195.731  0.00  0.00    +0.000 A 
ATOM     26  C30 UNK K   1      36.916  14.692 196.711  0.00  0.00    +0.000 A 
ATOM     27  C31 UNK K   1      38.059  16.809 196.977  0.00  0.00    +0.000 A 
BRANCH  22  29
ATOM     28  O6  UNK K   1      34.620  18.180 189.003  0.00  0.00    +0.000 OA
ATOM     29  N7  UNK K   1      36.697  16.813 193.431  0.00  0.00    +0.000 N 
ATOM     30  N8  UNK K   1      36.098  17.597 190.686  0.00  0.00    +0.000 N 
ATOM     31  C17 UNK K   1      35.597  17.722 193.144  0.00  0.00    +0.000 C 
ATOM     32  C18 UNK K   1      37.503  16.329 192.312  0.00  0.00    +0.000 C 
ATOM     33  C19 UNK K   1      35.041  17.502 191.673  0.00  0.00    +0.000 C 
ATOM     34  C20 UNK K   1      37.460  17.322 191.084  0.00  0.00    +0.000 C 
ATOM     35  C25 UNK K   1      35.791  17.958 189.335  0.00  0.00    +0.000 C 
ATOM     36  C36 UNK K   1      36.886  18.100 188.305  0.00  0.00    +0.000 C 
ENDBRANCH  22  29
ENDBRANCH  21  23
ENDBRANCH  20  21
ENDBRANCH   4  20
TORSDOF 7
ENDMDL
MODEL 8
REMARK VINA RESULT:    -4.181      4.541      8.494
REMARK INTER + INTRA:          -7.557
REMARK INTER:                  -6.364
REMARK INTRA:                  -1.193
REMARK UNBOUND:                -1.176
REMARK  Name = BCBL.pdb
REMARK  4 active torsions:
REMARK  status: ('A' for Active; 'I' for Inactive)
REMARK    1  A    between atoms: O1_1  and  C6_6
REMARK    2  A    between atoms: O3_3  and  C17_17
REMARK    3  A    between atoms: O4_4  and  C18_18
REMARK    4  A    between atoms: O5_5  and  C21_21
REMARK                            x       y       z     vdW  Elec       q    Type
REMARK                         _______ _______ _______ _____ _____    ______ ____
ROOT
ATOM      1  O2  UNK B   0      35.585  15.497 196.626  0.00  0.00    +0.000 OA
ATOM      2  C6  UNK B   0      36.553  13.484 197.633  0.00  0.00    +0.000 C 
ATOM      3  C7  UNK B   0      37.343  13.156 196.333  0.00  0.00    +0.000 C 
ATOM      4  C8  UNK B   0      37.514  14.234 198.588  0.00  0.00    +0.000 C 
ATOM      5  C9  UNK B   0      38.761  13.149 196.857  0.00  0.00    +0.000 A 
ATOM      6  C10 UNK B   0      38.849  13.753 198.116  0.00  0.00    +0.000 A 
ATOM      7  C11 UNK B   0      35.296  14.289 197.328  0.00  0.00    +0.000 C 
ATOM      8  C12 UNK B   0      37.093  14.172 195.241  0.00  0.00    +0.000 A 
ATOM      9  C13 UNK B   0      36.259  15.279 195.452  0.00  0.00    +0.000 A 
ATOM     10  C14 UNK B   0      39.893  12.620 196.252  0.00  0.00    +0.000 A 
ATOM     11  C15 UNK B   0      40.064  13.873 198.774  0.00  0.00    +0.000 A 
ATOM     12  C16 UNK B   0      37.692  14.022 193.980  0.00  0.00    +0.000 A 
ATOM     13  C17 UNK B   0      41.119  12.727 196.912  0.00  0.00    +0.000 A 
ATOM     14  C18 UNK B   0      41.205  13.354 198.163  0.00  0.00    +0.000 A 
ATOM     15  C19 UNK B   0      36.088  16.248 194.458  0.00  0.00    +0.000 A 
ATOM     16  C20 UNK B   0      37.503  14.978 192.979  0.00  0.00    +0.000 A 
ATOM     17  C21 UNK B   0      36.709  16.095 193.222  0.00  0.00    +0.000 A 
ENDROOT
BRANCH   2  18
ATOM     18  O1  UNK B   0      36.128  12.265 198.254  0.00  0.00    +0.000 OA
ATOM     19  H28 UNK B   0      36.339  11.529 197.656  0.00  0.00    +0.000 HD
ENDBRANCH   2  18
BRANCH  13  20
ATOM     20  O3  UNK B   0      42.238  12.214 196.324  0.00  0.00    +0.000 OA
ATOM     21  H33 UNK B   0      42.561  12.842 195.656  0.00  0.00    +0.000 HD
ENDBRANCH  13  20
BRANCH  14  22
ATOM     22  O4  UNK B   0      42.406  13.459 198.799  0.00  0.00    +0.000 OA
ATOM     23  H34 UNK B   0      42.291  13.217 199.734  0.00  0.00    +0.000 HD
ENDBRANCH  14  22
BRANCH  17  24
ATOM     24  O5  UNK B   0      36.534  17.031 192.250  0.00  0.00    +0.000 OA
ATOM     25  H35 UNK B   0      36.673  16.613 191.381  0.00  0.00    +0.000 HD
ENDBRANCH  17  24
TORSDOF 4
REMARK  Name = KETCA.pdb
REMARK  8 active torsions:
REMARK  status: ('A' for Active; 'I' for Inactive)
REMARK    1  A    between atoms: O5_5  and  C16_16
REMARK    2  A    between atoms: O5_5  and  C24_24
REMARK    3  A    between atoms: N7_7  and  C21_21
REMARK    4  A    between atoms: N9_9  and  C14_14
REMARK    5  A    between atoms: C11_11  and  C14_14
REMARK    6  A    between atoms: C11_11  and  C15_15
REMARK    7  A    between atoms: C12_12  and  C16_16
REMARK    8  A    between atoms: C25_25  and  C36_36
REMARK                            x       y       z     vdW  Elec       q    Type
REMARK                         _______ _______ _______ _____ _____    ______ ____
ROOT
ATOM      1  O3  UNK K   1      41.082  14.750 193.069  0.00  0.00    +0.000 OA
ATOM      2  O4  UNK K   1      42.965  13.968 194.199  0.00  0.00    +0.000 OA
ATOM      3  C11 UNK K   1      42.209  15.187 193.975  0.00  0.00    +0.000 C 
ATOM      4  C12 UNK K   1      41.364  13.330 192.759  0.00  0.00    +0.000 C 
ATOM      5  C13 UNK K   1      42.890  13.337 192.858  0.00  0.00    +0.000 C 
ENDROOT
BRANCH   3   8
ATOM      6 CL1  UNK K   1      43.963  15.965 196.633  0.00  0.00    +0.000 Cl
ATOM      7 CL2  UNK K   1      39.499  18.067 198.699  0.00  0.00    +0.000 Cl
ATOM      8  C15 UNK K   1      41.622  15.905 195.270  0.00  0.00    +0.000 A 
ATOM      9  C22 UNK K   1      42.305  16.293 196.372  0.00  0.00    +0.000 A 
ATOM     10  C23 UNK K   1      40.186  16.252 195.203  0.00  0.00    +0.000 A 
ATOM     11  C32 UNK K   1      41.596  16.966 197.484  0.00  0.00    +0.000 A 
ATOM     12  C33 UNK K   1      39.563  16.859 196.214  0.00  0.00    +0.000 A 
ATOM     13  C34 UNK K   1      40.303  17.256 197.394  0.00  0.00    +0.000 A 
ENDBRANCH   3   8
BRANCH   3  14
ATOM     14  C14 UNK K   1      43.182  16.150 193.143  0.00  0.00    +0.000 C 
BRANCH  14  15
ATOM     15  N9  UNK K   1      42.577  16.922 192.021  0.00  0.00    +0.000 N 
ATOM     16  N10 UNK K   1      42.247  17.626 190.004  0.00  0.00    +0.000 NA
ATOM     17  C28 UNK K   1      41.869  18.117 192.149  0.00  0.00    +0.000 A 
ATOM     18  C29 UNK K   1      42.802  16.680 190.663  0.00  0.00    +0.000 A 
ATOM     19  C35 UNK K   1      41.649  18.546 190.906  0.00  0.00    +0.000 A 
ENDBRANCH  14  15
ENDBRANCH   3  14
BRANCH   4  20
ATOM     20  C16 UNK K   1      40.642  12.754 191.378  0.00  0.00    +0.000 C 
BRANCH  20  21
ATOM     21  O5  UNK K   1      40.125  11.335 191.486  0.00  0.00    +0.000 OA
BRANCH  21  23
ATOM     22  C21 UNK K   1      36.370  10.442 193.662  0.00  0.00    +0.000 A 
ATOM     23  C24 UNK K   1      38.797  11.043 192.165  0.00  0.00    +0.000 A 
ATOM     24  C26 UNK K   1      36.307  10.970 192.425  0.00  0.00    +0.000 A 
ATOM     25  C27 UNK K   1      37.704  10.173 194.223  0.00  0.00    +0.000 A 
ATOM     26  C30 UNK K   1      37.589  11.278 191.626  0.00  0.00    +0.000 A 
ATOM     27  C31 UNK K   1      38.825  10.459 193.539  0.00  0.00    +0.000 A 
BRANCH  22  29
ATOM     28  O6  UNK K   1      30.757   8.431 196.346  0.00  0.00    +0.000 OA
ATOM     29  N7  UNK K   1      35.157  10.144 194.473  0.00  0.00    +0.000 N 
ATOM     30  N8  UNK K   1      32.703   9.626 195.963  0.00  0.00    +0.000 N 
ATOM     31  C17 UNK K   1      34.669   8.783 194.647  0.00  0.00    +0.000 C 
ATOM     32  C18 UNK K   1      34.398  11.233 195.086  0.00  0.00    +0.000 C 
ATOM     33  C19 UNK K   1      33.098   8.761 194.869  0.00  0.00    +0.000 C 
ATOM     34  C20 UNK K   1      33.555  10.736 196.325  0.00  0.00    +0.000 C 
ATOM     35  C25 UNK K   1      31.484   9.379 196.672  0.00  0.00    +0.000 C 
ATOM     36  C36 UNK K   1      31.080  10.246 197.841  0.00  0.00    +0.000 C 
ENDBRANCH  22  29
ENDBRANCH  21  23
ENDBRANCH  20  21
ENDBRANCH   4  20
TORSDOF 7
ENDMDL
MODEL 9
REMARK VINA RESULT:    -4.179      3.810      8.646
REMARK INTER + INTRA:          -7.553
REMARK INTER:                  -6.376
REMARK INTRA:                  -1.177
REMARK UNBOUND:                -1.176
REMARK  Name = BCBL.pdb
REMARK  4 active torsions:
REMARK  status: ('A' for Active; 'I' for Inactive)
REMARK    1  A    between atoms: O1_1  and  C6_6
REMARK    2  A    between atoms: O3_3  and  C17_17
REMARK    3  A    between atoms: O4_4  and  C18_18
REMARK    4  A    between atoms: O5_5  and  C21_21
REMARK                            x       y       z     vdW  Elec       q    Type
REMARK                         _______ _______ _______ _____ _____    ______ ____
ROOT
ATOM      1  O2  UNK B   0      38.679  12.634 198.275  0.00  0.00    +0.000 OA
ATOM      2  C6  UNK B   0      40.407  14.372 198.276  0.00  0.00    +0.000 C 
ATOM      3  C7  UNK B   0      39.452  15.388 197.585  0.00  0.00    +0.000 C 
ATOM      4  C8  UNK B   0      40.354  14.642 199.800  0.00  0.00    +0.000 C 
ATOM      5  C9  UNK B   0      39.438  16.503 198.606  0.00  0.00    +0.000 A 
ATOM      6  C10 UNK B   0      39.942  16.079 199.839  0.00  0.00    +0.000 A 
ATOM      7  C11 UNK B   0      40.031  12.936 197.931  0.00  0.00    +0.000 C 
ATOM      8  C12 UNK B   0      38.092  14.791 197.302  0.00  0.00    +0.000 A 
ATOM      9  C13 UNK B   0      37.779  13.477 197.676  0.00  0.00    +0.000 A 
ATOM     10  C14 UNK B   0      39.018  17.814 198.432  0.00  0.00    +0.000 A 
ATOM     11  C15 UNK B   0      40.001  16.938 200.927  0.00  0.00    +0.000 A 
ATOM     12  C16 UNK B   0      37.107  15.548 196.647  0.00  0.00    +0.000 A 
ATOM     13  C17 UNK B   0      39.083  18.689 199.519  0.00  0.00    +0.000 A 
ATOM     14  C18 UNK B   0      39.567  18.253 200.759  0.00  0.00    +0.000 A 
ATOM     15  C19 UNK B   0      36.497  12.958 197.470  0.00  0.00    +0.000 A 
ATOM     16  C20 UNK B   0      35.833  15.022 196.421  0.00  0.00    +0.000 A 
ATOM     17  C21 UNK B   0      35.525  13.732 196.841  0.00  0.00    +0.000 A 
ENDROOT
BRANCH   2  18
ATOM     18  O1  UNK B   0      41.745  14.577 197.808  0.00  0.00    +0.000 OA
ATOM     19  H28 UNK B   0      42.341  14.021 198.338  0.00  0.00    +0.000 HD
ENDBRANCH   2  18
BRANCH  13  20
ATOM     20  O3  UNK B   0      38.668  19.979 199.359  0.00  0.00    +0.000 OA
ATOM     21  H33 UNK B   0      39.438  20.538 199.162  0.00  0.00    +0.000 HD
ENDBRANCH  13  20
BRANCH  14  22
ATOM     22  O4  UNK B   0      39.624  19.112 201.816  0.00  0.00    +0.000 OA
ATOM     23  H34 UNK B   0      38.777  19.085 202.292  0.00  0.00    +0.000 HD
ENDBRANCH  14  22
BRANCH  17  24
ATOM     24  O5  UNK B   0      34.280  13.224 196.629  0.00  0.00    +0.000 OA
ATOM     25  H35 UNK B   0      33.961  12.818 197.454  0.00  0.00    +0.000 HD
ENDBRANCH  17  24
TORSDOF 4
REMARK  Name = KETCA.pdb
REMARK  8 active torsions:
REMARK  status: ('A' for Active; 'I' for Inactive)
REMARK    1  A    between atoms: O5_5  and  C16_16
REMARK    2  A    between atoms: O5_5  and  C24_24
REMARK    3  A    between atoms: N7_7  and  C21_21
REMARK    4  A    between atoms: N9_9  and  C14_14
REMARK    5  A    between atoms: C11_11  and  C14_14
REMARK    6  A    between atoms: C11_11  and  C15_15
REMARK    7  A    between atoms: C12_12  and  C16_16
REMARK    8  A    between atoms: C25_25  and  C36_36
REMARK                            x       y       z     vdW  Elec       q    Type
REMARK                         _______ _______ _______ _____ _____    ______ ____
ROOT
ATOM      1  O3  UNK K   1      35.073  18.141 198.018  0.00  0.00    +0.000 OA
ATOM      2  O4  UNK K   1      35.813  19.976 199.251  0.00  0.00    +0.000 OA
ATOM      3  C11 UNK K   1      35.104  18.719 199.413  0.00  0.00    +0.000 C 
ATOM      4  C12 UNK K   1      35.670  19.183 197.154  0.00  0.00    +0.000 C 
ATOM      5  C13 UNK K   1      35.280  20.434 197.943  0.00  0.00    +0.000 C 
ENDROOT
BRANCH   3   8
ATOM      6 CL1  UNK K   1      36.021  19.410 202.485  0.00  0.00    +0.000 Cl
ATOM      7 CL2  UNK K   1      37.442  14.278 202.987  0.00  0.00    +0.000 Cl
ATOM      8  C15 UNK K   1      35.747  17.670 200.426  0.00  0.00    +0.000 A 
ATOM      9  C22 UNK K   1      36.097  17.885 201.715  0.00  0.00    +0.000 A 
ATOM     10  C23 UNK K   1      35.887  16.293 199.903  0.00  0.00    +0.000 A 
ATOM     11  C32 UNK K   1      36.671  16.782 202.520  0.00  0.00    +0.000 A 
ATOM     12  C33 UNK K   1      36.405  15.312 200.642  0.00  0.00    +0.000 A 
ATOM     13  C34 UNK K   1      36.791  15.559 202.017  0.00  0.00    +0.000 A 
ENDBRANCH   3   8
BRANCH   3  14
ATOM     14  C14 UNK K   1      33.610  19.118 199.829  0.00  0.00    +0.000 C 
BRANCH  14  15
ATOM     15  N9  UNK K   1      32.501  18.349 199.197  0.00  0.00    +0.000 N 
ATOM     16  N10 UNK K   1      31.262  16.656 198.674  0.00  0.00    +0.000 NA
ATOM     17  C28 UNK K   1      31.788  18.739 198.064  0.00  0.00    +0.000 A 
ATOM     18  C29 UNK K   1      32.148  17.035 199.516  0.00  0.00    +0.000 A 
ATOM     19  C35 UNK K   1      31.011  17.702 197.746  0.00  0.00    +0.000 A 
ENDBRANCH  14  15
ENDBRANCH   3  14
BRANCH   4  20
ATOM     20  C16 UNK K   1      35.268  19.080 195.545  0.00  0.00    +0.000 C 
BRANCH  20  21
ATOM     21  O5  UNK K   1      36.412  19.359 194.594  0.00  0.00    +0.000 OA
BRANCH  21  23
ATOM     22  C21 UNK K   1      39.491  16.284 193.762  0.00  0.00    +0.000 A 
ATOM     23  C24 UNK K   1      37.420  18.275 194.253  0.00  0.00    +0.000 A 
ATOM     24  C26 UNK K   1      38.271  16.166 193.204  0.00  0.00    +0.000 A 
ATOM     25  C27 UNK K   1      39.739  17.456 194.618  0.00  0.00    +0.000 A 
ATOM     26  C30 UNK K   1      37.177  17.223 193.452  0.00  0.00    +0.000 A 
ATOM     27  C31 UNK K   1      38.783  18.370 194.854  0.00  0.00    +0.000 A 
BRANCH  22  29
ATOM     28  O6  UNK K   1      44.200  11.757 194.030  0.00  0.00    +0.000 OA
ATOM     29  N7  UNK K   1      40.569  15.278 193.560  0.00  0.00    +0.000 N 
ATOM     30  N8  UNK K   1      42.773  13.395 193.231  0.00  0.00    +0.000 N 
ATOM     31  C17 UNK K   1      40.562  13.999 194.256  0.00  0.00    +0.000 C 
ATOM     32  C18 UNK K   1      41.695  15.576 192.677  0.00  0.00    +0.000 C 
ATOM     33  C19 UNK K   1      42.038  13.458 194.477  0.00  0.00    +0.000 C 
ATOM     34  C20 UNK K   1      42.385  14.261 192.140  0.00  0.00    +0.000 C 
ATOM     35  C25 UNK K   1      43.870  12.486 193.086  0.00  0.00    +0.000 C 
ATOM     36  C36 UNK K   1      44.620  12.380 191.779  0.00  0.00    +0.000 C 
ENDBRANCH  22  29
ENDBRANCH  21  23
ENDBRANCH  20  21
ENDBRANCH   4  20
TORSDOF 7
ENDMDL
