MODEL 1
REMARK VINA RESULT:     0.000      0.000      0.000
REMARK INTER + INTRA:          -0.724
REMARK INTER:                   0.000
REMARK INTRA:                  -0.724
REMARK UNBOUND:                -0.724
REMARK  2 active torsions:
REMARK  status: ('A' for Active; 'I' for Inactive)
REMARK    1  A    between atoms: C9_9  and  C13_13 
REMARK    2  A    between atoms: C10_10  and  C14_14 
ROOT
HETATM    1  O1          0      39.780  12.090 192.177  1.00  0.00    -0.380 OA
HETATM    2  O2          0      39.264   8.181 193.686  1.00  0.00    -0.380 OA
HETATM    3  C7          0      39.811   9.797 191.931  1.00  0.00     0.052 C 
HETATM    4  C8          0      38.518  10.018 192.509  1.00  0.00     0.052 C 
HETATM    5  C9          0      40.674  10.965 192.491  1.00  0.00     0.161 C 
HETATM    6  C10         0      38.669   9.496 193.967  1.00  0.00     0.161 C 
HETATM    7  C11         0      38.336  11.540 192.222  1.00  0.00     0.176 C 
HETATM    8  C12         0      40.074   8.327 192.379  1.00  0.00     0.176 C 
ENDROOT
BRANCH   5   9
HETATM    9  C13         0      42.060  11.048 191.774  1.00  0.00    -0.026 A 
HETATM   10  C15         0      42.088  11.321 190.450  1.00  0.00     0.049 A 
HETATM   11  C19         0      43.399  11.283 189.774  1.00  0.00     0.105 A 
HETATM   12  O3          0      43.642  11.521 188.466  1.00  0.00    -0.323 OA
HETATM   13  C23         0      44.482  10.978 190.385  1.00  0.00     0.105 A 
HETATM   14  C25         0      45.058  11.341 188.225  1.00  0.00     0.352 A 
HETATM   15  O5          0      45.537  10.990 189.542  1.00  0.00    -0.323 OA
HETATM   16  C21         0      44.510  10.670 191.807  1.00  0.00     0.040 A 
HETATM   17  C17         0      43.344  10.708 192.473  1.00  0.00     0.012 A 
ENDBRANCH   5   9
BRANCH   6  18
HETATM   18  C14         0      37.288   9.417 194.692  1.00  0.00    -0.026 A 
HETATM   19  C18         0      37.004  10.171 195.959  1.00  0.00     0.012 A 
HETATM   20  C22         0      35.775  10.185 196.503  1.00  0.00     0.040 A 
HETATM   21  C24         0      34.731   9.434 195.819  1.00  0.00     0.105 A 
HETATM   22  O6          0      33.440   9.327 196.195  1.00  0.00    -0.323 OA
HETATM   23  C20         0      34.957   8.776 194.745  1.00  0.00     0.105 A 
HETATM   24  C26         0      32.756   8.498 195.231  1.00  0.00     0.352 A 
HETATM   25  O4          0      33.826   8.173 194.312  1.00  0.00    -0.323 OA
HETATM   26  C16         0      36.280   8.741 194.095  1.00  0.00     0.049 A 
ENDBRANCH   6  18
TORSDOF 2
ENDMDL
MODEL 2
REMARK VINA RESULT:     0.000      9.675     11.571
REMARK INTER + INTRA:          -0.724
REMARK INTER:                   0.000
REMARK INTRA:                  -0.724
REMARK UNBOUND:                -0.724
REMARK  2 active torsions:
REMARK  status: ('A' for Active; 'I' for Inactive)
REMARK    1  A    between atoms: C9_9  and  C13_13 
REMARK    2  A    between atoms: C10_10  and  C14_14 
ROOT
HETATM    1  O1          0      39.571  16.442 198.699  1.00  0.00    -0.380 OA
HETATM    2  O2          0      38.630  20.320 197.321  1.00  0.00    -0.380 OA
HETATM    3  C7          0      39.794  18.171 197.190  1.00  0.00     0.052 C 
HETATM    4  C8          0      39.997  18.838 198.442  1.00  0.00     0.052 C 
HETATM    5  C9          0      38.843  16.992 197.546  1.00  0.00     0.161 C 
HETATM    6  C10         0      38.694  19.665 198.637  1.00  0.00     0.161 C 
HETATM    7  C11         0      40.315  17.622 199.364  1.00  0.00     0.176 C 
HETATM    8  C12         0      39.297  19.360 196.312  1.00  0.00     0.176 C 
ENDROOT
BRANCH   5   9
HETATM    9  C13         0      38.703  15.989 196.357  1.00  0.00    -0.026 A 
HETATM   10  C15         0      39.799  15.311 195.950  1.00  0.00     0.049 A 
HETATM   11  C19         0      39.668  14.455 194.755  1.00  0.00     0.105 A 
HETATM   12  O3          0      40.636  13.703 194.188  1.00  0.00    -0.323 OA
HETATM   13  C23         0      38.577  14.360 194.091  1.00  0.00     0.105 A 
HETATM   14  C25         0      40.084  13.054 193.017  1.00  0.00     0.352 A 
HETATM   15  O5          0      38.723  13.537 193.030  1.00  0.00    -0.323 OA
HETATM   16  C21         0      37.368  15.072 194.479  1.00  0.00     0.040 A 
HETATM   17  C17         0      37.431  15.851 195.571  1.00  0.00     0.012 A 
ENDBRANCH   5   9
BRANCH   6  18
HETATM   18  C14         0      38.824  20.666 199.829  1.00  0.00    -0.026 A 
HETATM   19  C18         0      37.896  20.631 201.009  1.00  0.00     0.012 A 
HETATM   20  C22         0      38.096  21.420 202.078  1.00  0.00     0.040 A 
HETATM   21  C24         0      39.244  22.316 202.044  1.00  0.00     0.105 A 
HETATM   22  O6          0      39.621  23.177 203.012  1.00  0.00    -0.323 OA
HETATM   23  C20         0      40.039  22.369 201.043  1.00  0.00     0.105 A 
HETATM   24  C26         0      40.813  23.861 202.570  1.00  0.00     0.352 A 
HETATM   25  O4          0      41.019  23.274 201.263  1.00  0.00    -0.323 OA
HETATM   26  C16         0      39.878  21.513 199.852  1.00  0.00     0.049 A 
ENDBRANCH   6  18
TORSDOF 2
ENDMDL
MODEL 3
REMARK VINA RESULT:     0.000      9.413     11.368
REMARK INTER + INTRA:          -0.724
REMARK INTER:                   0.000
REMARK INTRA:                  -0.724
REMARK UNBOUND:                -0.724
REMARK  2 active torsions:
REMARK  status: ('A' for Active; 'I' for Inactive)
REMARK    1  A    between atoms: C9_9  and  C13_13 
REMARK    2  A    between atoms: C10_10  and  C14_14 
ROOT
HETATM    1  O1          0      42.479  15.864 201.398  1.00  0.00    -0.380 OA
HETATM    2  O2          0      39.119  15.847 198.841  1.00  0.00    -0.380 OA
HETATM    3  C7          0      40.267  16.338 200.947  1.00  0.00     0.052 C 
HETATM    4  C8          0      40.361  14.958 200.569  1.00  0.00     0.052 C 
HETATM    5  C9          0      41.699  16.892 200.692  1.00  0.00     0.161 C 
HETATM    6  C10         0      40.304  14.994 199.015  1.00  0.00     0.161 C 
HETATM    7  C11         0      41.671  14.550 201.310  1.00  0.00     0.176 C 
HETATM    8  C12         0      39.067  16.793 200.062  1.00  0.00     0.176 C 
ENDROOT
BRANCH   5   9
HETATM    9  C13         0      41.871  18.327 201.284  1.00  0.00    -0.026 A 
HETATM   10  C15         0      41.763  18.492 202.622  1.00  0.00     0.049 A 
HETATM   11  C19         0      41.818  19.870 203.146  1.00  0.00     0.105 A 
HETATM   12  O3          0      41.727  20.249 204.440  1.00  0.00    -0.323 OA
HETATM   13  C23         0      41.934  20.894 202.385  1.00  0.00     0.105 A 
HETATM   14  C25         0      41.793  21.694 204.499  1.00  0.00     0.352 A 
HETATM   15  O5          0      41.935  22.037 203.103  1.00  0.00    -0.323 OA
HETATM   16  C21         0      42.049  20.776 200.938  1.00  0.00     0.040 A 
HETATM   17  C17         0      42.022  19.540 200.413  1.00  0.00     0.012 A 
ENDBRANCH   5   9
BRANCH   6  18
HETATM   18  C14         0      40.138  13.561 198.415  1.00  0.00    -0.026 A 
HETATM   19  C18         0      41.134  12.974 197.458  1.00  0.00     0.012 A 
HETATM   20  C22         0      41.038  11.698 197.045  1.00  0.00     0.040 A 
HETATM   21  C24         0      39.925  10.910 197.558  1.00  0.00     0.105 A 
HETATM   22  O6          0      39.656   9.619 197.275  1.00  0.00    -0.323 OA
HETATM   23  C20         0      39.060  11.397 198.365  1.00  0.00     0.105 A 
HETATM   24  C26         0      38.469   9.235 198.000  1.00  0.00     0.352 A 
HETATM   25  O4          0      38.137  10.464 198.690  1.00  0.00    -0.323 OA
HETATM   26  C16         0      39.128  12.784 198.864  1.00  0.00     0.049 A 
ENDBRANCH   6  18
TORSDOF 2
ENDMDL
MODEL 4
REMARK VINA RESULT:     0.000      5.880      7.135
REMARK INTER + INTRA:          -0.724
REMARK INTER:                   0.000
REMARK INTRA:                  -0.724
REMARK UNBOUND:                -0.724
REMARK  2 active torsions:
REMARK  status: ('A' for Active; 'I' for Inactive)
REMARK    1  A    between atoms: C9_9  and  C13_13 
REMARK    2  A    between atoms: C10_10  and  C14_14 
ROOT
HETATM    1  O1          0      39.031  14.632 195.508  1.00  0.00    -0.380 OA
HETATM    2  O2          0      37.964  16.477 191.863  1.00  0.00    -0.380 OA
HETATM    3  C7          0      39.476  16.043 193.739  1.00  0.00     0.052 C 
HETATM    4  C8          0      38.181  16.490 194.159  1.00  0.00     0.052 C 
HETATM    5  C9          0      39.489  14.533 194.113  1.00  0.00     0.161 C 
HETATM    6  C10         0      37.230  15.981 193.037  1.00  0.00     0.161 C 
HETATM    7  C11         0      38.122  15.879 195.593  1.00  0.00     0.176 C 
HETATM    8  C12         0      39.460  16.494 192.246  1.00  0.00     0.176 C 
ENDROOT
BRANCH   5   9
HETATM    9  C13         0      40.918  13.919 193.965  1.00  0.00    -0.026 A 
HETATM   10  C15         0      41.910  14.389 194.754  1.00  0.00     0.049 A 
HETATM   11  C19         0      43.272  13.873 194.520  1.00  0.00     0.105 A 
HETATM   12  O3          0      44.394  14.214 195.191  1.00  0.00    -0.323 OA
HETATM   13  C23         0      43.541  13.033 193.592  1.00  0.00     0.105 A 
HETATM   14  C25         0      45.509  13.498 194.610  1.00  0.00     0.352 A 
HETATM   15  O5          0      44.858  12.740 193.567  1.00  0.00    -0.323 OA
HETATM   16  C21         0      42.515  12.497 192.708  1.00  0.00     0.040 A 
HETATM   17  C17         0      41.254  12.922 192.894  1.00  0.00     0.012 A 
ENDBRANCH   5   9
BRANCH   6  18
HETATM   18  C14         0      35.797  16.586 193.183  1.00  0.00    -0.026 A 
HETATM   19  C18         0      34.578  15.727 193.349  1.00  0.00     0.012 A 
HETATM   20  C22         0      33.371  16.266 193.592  1.00  0.00     0.040 A 
HETATM   21  C24         0      33.292  17.718 193.680  1.00  0.00     0.105 A 
HETATM   22  O6          0      32.184  18.449 193.922  1.00  0.00    -0.323 OA
HETATM   23  C20         0      34.317  18.467 193.529  1.00  0.00     0.105 A 
HETATM   24  C26         0      32.557  19.844 193.931  1.00  0.00     0.352 A 
HETATM   25  O4          0      33.977  19.770 193.661  1.00  0.00    -0.323 OA
HETATM   26  C16         0      35.668  17.928 193.280  1.00  0.00     0.049 A 
ENDBRANCH   6  18
TORSDOF 2
ENDMDL
MODEL 5
REMARK VINA RESULT:     0.000      9.551     10.876
REMARK INTER + INTRA:          -0.724
REMARK INTER:                   0.000
REMARK INTRA:                  -0.724
REMARK UNBOUND:                -0.724
REMARK  2 active torsions:
REMARK  status: ('A' for Active; 'I' for Inactive)
REMARK    1  A    between atoms: C9_9  and  C13_13 
REMARK    2  A    between atoms: C10_10  and  C14_14 
ROOT
HETATM    1  O1          0      45.894  17.970 196.773  1.00  0.00    -0.380 OA
HETATM    2  O2          0      41.748  17.840 197.561  1.00  0.00    -0.380 OA
HETATM    3  C7          0      43.724  18.622 196.345  1.00  0.00     0.052 C 
HETATM    4  C8          0      43.824  18.825 197.760  1.00  0.00     0.052 C 
HETATM    5  C9          0      44.712  17.453 196.065  1.00  0.00     0.161 C 
HETATM    6  C10         0      42.970  17.673 198.362  1.00  0.00     0.161 C 
HETATM    7  C11         0      45.373  18.845 197.935  1.00  0.00     0.176 C 
HETATM    8  C12         0      42.185  18.418 196.196  1.00  0.00     0.176 C 
ENDROOT
BRANCH   5   9
HETATM    9  C13         0      44.938  17.248 194.534  1.00  0.00    -0.026 A 
HETATM   10  C15         0      45.513  18.246 193.825  1.00  0.00     0.049 A 
HETATM   11  C19         0      45.614  18.074 192.363  1.00  0.00     0.105 A 
HETATM   12  O3          0      46.147  18.947 191.480  1.00  0.00    -0.323 OA
HETATM   13  C23         0      45.158  17.043 191.756  1.00  0.00     0.105 A 
HETATM   14  C25         0      46.006  18.395 190.150  1.00  0.00     0.352 A 
HETATM   15  O5          0      45.350  17.138 190.423  1.00  0.00    -0.323 OA
HETATM   16  C21         0      44.524  15.941 192.467  1.00  0.00     0.040 A 
HETATM   17  C17         0      44.424  16.042 193.802  1.00  0.00     0.012 A 
ENDBRANCH   5   9
BRANCH   6  18
HETATM   18  C14         0      42.745  17.868 199.896  1.00  0.00    -0.026 A 
HETATM   19  C18         0      43.183  16.847 200.905  1.00  0.00     0.012 A 
HETATM   20  C22         0      43.089  17.084 202.225  1.00  0.00     0.040 A 
HETATM   21  C24         0      42.539  18.369 202.637  1.00  0.00     0.105 A 
HETATM   22  O6          0      42.367  18.802 203.903  1.00  0.00    -0.323 OA
HETATM   23  C20         0      42.149  19.246 201.791  1.00  0.00     0.105 A 
HETATM   24  C26         0      41.801  20.128 203.854  1.00  0.00     0.352 A 
HETATM   25  O4          0      41.684  20.345 202.428  1.00  0.00    -0.323 OA
HETATM   26  C16         0      42.246  19.046 200.333  1.00  0.00     0.049 A 
ENDBRANCH   6  18
TORSDOF 2
ENDMDL
MODEL 6
REMARK VINA RESULT:     0.000      6.301      9.673
REMARK INTER + INTRA:          -0.724
REMARK INTER:                   0.000
REMARK INTRA:                  -0.724
REMARK UNBOUND:                -0.724
REMARK  2 active torsions:
REMARK  status: ('A' for Active; 'I' for Inactive)
REMARK    1  A    between atoms: C9_9  and  C13_13 
REMARK    2  A    between atoms: C10_10  and  C14_14 
ROOT
HETATM    1  O1          0      32.477  14.970 193.220  1.00  0.00    -0.380 OA
HETATM    2  O2          0      34.428  12.458 195.996  1.00  0.00    -0.380 OA
HETATM    3  C7          0      34.223  14.491 194.648  1.00  0.00     0.052 C 
HETATM    4  C8          0      34.139  13.294 193.866  1.00  0.00     0.052 C 
HETATM    5  C9          0      32.763  15.030 194.661  1.00  0.00     0.161 C 
HETATM    6  C10         0      33.533  12.250 194.847  1.00  0.00     0.161 C 
HETATM    7  C11         0      33.319  13.810 192.644  1.00  0.00     0.176 C 
HETATM    8  C12         0      34.878  13.935 195.949  1.00  0.00     0.176 C 
ENDROOT
BRANCH   5   9
HETATM    9  C13         0      32.689  16.473 195.255  1.00  0.00    -0.026 A 
HETATM   10  C15         0      33.327  17.473 194.607  1.00  0.00     0.049 A 
HETATM   11  C19         0      33.338  18.803 195.245  1.00  0.00     0.105 A 
HETATM   12  O3          0      33.917  19.926 194.766  1.00  0.00    -0.323 OA
HETATM   13  C23         0      32.797  19.026 196.384  1.00  0.00     0.105 A 
HETATM   14  C25         0      33.716  20.989 195.728  1.00  0.00     0.352 A 
HETATM   15  O5          0      32.965  20.312 196.759  1.00  0.00    -0.323 OA
HETATM   16  C21         0      32.102  17.986 197.130  1.00  0.00     0.040 A 
HETATM   17  C17         0      32.050  16.761 196.582  1.00  0.00     0.012 A 
ENDBRANCH   5   9
BRANCH   6  18
HETATM   18  C14         0      33.597  10.805 194.257  1.00  0.00    -0.026 A 
HETATM   19  C18         0      32.367   9.971 194.047  1.00  0.00     0.012 A 
HETATM   20  C22         0      32.428   8.779 193.429  1.00  0.00     0.040 A 
HETATM   21  C24         0      33.737   8.325 192.977  1.00  0.00     0.105 A 
HETATM   22  O6          0      34.010   7.170 192.335  1.00  0.00    -0.323 OA
HETATM   23  C20         0      34.798   9.016 193.158  1.00  0.00     0.105 A 
HETATM   24  C26         0      35.428   7.126 192.069  1.00  0.00     0.352 A 
HETATM   25  O4          0      35.874   8.376 192.646  1.00  0.00    -0.323 OA
HETATM   26  C16         0      34.786  10.338 193.813  1.00  0.00     0.049 A 
ENDBRANCH   6  18
TORSDOF 2
ENDMDL
MODEL 7
REMARK VINA RESULT:     0.000      5.147      7.536
REMARK INTER + INTRA:          -0.724
REMARK INTER:                   0.000
REMARK INTRA:                  -0.724
REMARK UNBOUND:                -0.724
REMARK  2 active torsions:
REMARK  status: ('A' for Active; 'I' for Inactive)
REMARK    1  A    between atoms: C9_9  and  C13_13 
REMARK    2  A    between atoms: C10_10  and  C14_14 
ROOT
HETATM    1  O1          0      42.479  14.924 193.359  1.00  0.00    -0.380 OA
HETATM    2  O2          0      44.971  12.007 191.598  1.00  0.00    -0.380 OA
HETATM    3  C7          0      44.183  14.300 191.936  1.00  0.00     0.052 C 
HETATM    4  C8          0      43.133  13.399 191.560  1.00  0.00     0.052 C 
HETATM    5  C9          0      43.908  14.584 193.441  1.00  0.00     0.161 C 
HETATM    6  C10         0      43.599  12.028 192.127  1.00  0.00     0.161 C 
HETATM    7  C11         0      41.898  14.134 192.164  1.00  0.00     0.176 C 
HETATM    8  C12         0      45.433  13.477 191.496  1.00  0.00     0.176 C 
ENDROOT
BRANCH   5   9
HETATM    9  C13         0      44.800  15.749 193.977  1.00  0.00    -0.026 A 
HETATM   10  C15         0      44.639  16.983 193.447  1.00  0.00     0.049 A 
HETATM   11  C19         0      45.568  18.041 193.888  1.00  0.00     0.105 A 
HETATM   12  O3          0      45.578  19.330 193.483  1.00  0.00    -0.323 OA
HETATM   13  C23         0      46.518  17.823 194.718  1.00  0.00     0.105 A 
HETATM   14  C25         0      46.677  20.006 194.139  1.00  0.00     0.352 A 
HETATM   15  O5          0      47.239  18.943 194.938  1.00  0.00    -0.323 OA
HETATM   16  C21         0      46.743  16.514 195.315  1.00  0.00     0.040 A 
HETATM   17  C17         0      45.911  15.520 194.959  1.00  0.00     0.012 A 
ENDBRANCH   5   9
BRANCH   6  18
HETATM   18  C14         0      42.707  10.858 191.601  1.00  0.00    -0.026 A 
HETATM   19  C18         0      41.946   9.953 192.526  1.00  0.00     0.012 A 
HETATM   20  C22         0      41.091   9.030 192.053  1.00  0.00     0.040 A 
HETATM   21  C24         0      40.939   8.936 190.607  1.00  0.00     0.105 A 
HETATM   22  O6          0      40.134   8.087 189.936  1.00  0.00    -0.323 OA
HETATM   23  C20         0      41.589   9.690 189.803  1.00  0.00     0.105 A 
HETATM   24  C26         0      40.288   8.338 188.524  1.00  0.00     0.352 A 
HETATM   25  O4          0      41.266   9.405 188.520  1.00  0.00    -0.323 OA
HETATM   26  C16         0      42.524  10.732 190.267  1.00  0.00     0.049 A 
ENDBRANCH   6  18
TORSDOF 2
ENDMDL
MODEL 8
REMARK VINA RESULT:     0.000      4.915      6.359
REMARK INTER + INTRA:          -0.724
REMARK INTER:                   0.000
REMARK INTRA:                  -0.724
REMARK UNBOUND:                -0.724
REMARK  2 active torsions:
REMARK  status: ('A' for Active; 'I' for Inactive)
REMARK    1  A    between atoms: C9_9  and  C13_13 
REMARK    2  A    between atoms: C10_10  and  C14_14 
ROOT
HETATM    1  O1          0      40.437  16.189 194.397  1.00  0.00    -0.380 OA
HETATM    2  O2          0      39.993  12.651 192.136  1.00  0.00    -0.380 OA
HETATM    3  C7          0      41.198  14.661 192.847  1.00  0.00     0.052 C 
HETATM    4  C8          0      39.877  14.943 192.366  1.00  0.00     0.052 C 
HETATM    5  C9          0      41.086  14.869 194.385  1.00  0.00     0.161 C 
HETATM    6  C10         0      39.076  13.653 192.701  1.00  0.00     0.161 C 
HETATM    7  C11         0      39.583  16.281 193.112  1.00  0.00     0.176 C 
HETATM    8  C12         0      41.418  13.238 192.249  1.00  0.00     0.176 C 
ENDROOT
BRANCH   5   9
HETATM    9  C13         0      42.491  14.856 195.068  1.00  0.00    -0.026 A 
HETATM   10  C15         0      43.379  15.820 194.740  1.00  0.00     0.049 A 
HETATM   11  C19         0      44.736  15.722 195.312  1.00  0.00     0.105 A 
HETATM   12  O3          0      45.764  16.575 195.110  1.00  0.00    -0.323 OA
HETATM   13  C23         0      45.096  14.756 196.071  1.00  0.00     0.105 A 
HETATM   14  C25         0      46.917  16.081 195.832  1.00  0.00     0.352 A 
HETATM   15  O5          0      46.388  14.883 196.441  1.00  0.00    -0.323 OA
HETATM   16  C21         0      44.184  13.687 196.453  1.00  0.00     0.040 A 
HETATM   17  C17         0      42.931  13.741 195.971  1.00  0.00     0.012 A 
ENDBRANCH   5   9
BRANCH   6  18
HETATM   18  C14         0      37.667  13.662 192.026  1.00  0.00    -0.026 A 
HETATM   19  C18         0      36.398  13.564 192.822  1.00  0.00     0.012 A 
HETATM   20  C22         0      35.195  13.694 192.237  1.00  0.00     0.040 A 
HETATM   21  C24         0      35.171  13.926 190.799  1.00  0.00     0.105 A 
HETATM   22  O6          0      34.075  14.089 190.028  1.00  0.00    -0.323 OA
HETATM   23  C20         0      36.242  14.000 190.102  1.00  0.00     0.105 A 
HETATM   24  C26         0      34.507  14.300 188.668  1.00  0.00     0.352 A 
HETATM   25  O4          0      35.946  14.223 188.801  1.00  0.00    -0.323 OA
HETATM   26  C16         0      37.587  13.885 190.695  1.00  0.00     0.049 A 
ENDBRANCH   6  18
TORSDOF 2
ENDMDL
MODEL 9
REMARK VINA RESULT:     0.000      7.641     11.155
REMARK INTER + INTRA:          -0.724
REMARK INTER:                   0.000
REMARK INTRA:                  -0.724
REMARK UNBOUND:                -0.724
REMARK  2 active torsions:
REMARK  status: ('A' for Active; 'I' for Inactive)
REMARK    1  A    between atoms: C9_9  and  C13_13 
REMARK    2  A    between atoms: C10_10  and  C14_14 
ROOT
HETATM    1  O1          0      33.175  15.203 193.512  1.00  0.00    -0.380 OA
HETATM    2  O2          0      36.075  18.256 193.200  1.00  0.00    -0.380 OA
HETATM    3  C7          0      34.582  16.772 194.449  1.00  0.00     0.052 C 
HETATM    4  C8          0      33.897  17.541 193.453  1.00  0.00     0.052 C 
HETATM    5  C9          0      34.599  15.331 193.861  1.00  0.00     0.161 C 
HETATM    6  C10         0      34.974  17.770 192.354  1.00  0.00     0.161 C 
HETATM    7  C11         0      32.665  16.624 193.183  1.00  0.00     0.176 C 
HETATM    8  C12         0      35.900  17.593 194.584  1.00  0.00     0.176 C 
ENDROOT
BRANCH   5   9
HETATM    9  C13         0      35.081  14.287 194.917  1.00  0.00    -0.026 A 
HETATM   10  C15         0      34.341  14.106 196.034  1.00  0.00     0.049 A 
HETATM   11  C19         0      34.874  13.198 197.067  1.00  0.00     0.105 A 
HETATM   12  O3          0      34.296  12.886 198.248  1.00  0.00    -0.323 OA
HETATM   13  C23         0      36.006  12.611 196.952  1.00  0.00     0.105 A 
HETATM   14  C25         0      35.178  11.991 198.966  1.00  0.00     0.352 A 
HETATM   15  O5          0      36.277  11.858 198.040  1.00  0.00    -0.323 OA
HETATM   16  C21         0      36.849  12.773 195.776  1.00  0.00     0.040 A 
HETATM   17  C17         0      36.398  13.577 194.798  1.00  0.00     0.012 A 
ENDBRANCH   5   9
BRANCH   6  18
HETATM   18  C14         0      34.496  18.809 191.290  1.00  0.00    -0.026 A 
HETATM   19  C18         0      34.389  18.470 189.832  1.00  0.00     0.012 A 
HETATM   20  C22         0      33.863  19.337 188.950  1.00  0.00     0.040 A 
HETATM   21  C24         0      33.408  20.622 189.464  1.00  0.00     0.105 A 
HETATM   22  O6          0      32.848  21.621 188.750  1.00  0.00    -0.323 OA
HETATM   23  C20         0      33.501  20.933 190.701  1.00  0.00     0.105 A 
HETATM   24  C26         0      32.542  22.704 189.653  1.00  0.00     0.352 A 
HETATM   25  O4          0      33.007  22.173 190.917  1.00  0.00    -0.323 OA
HETATM   26  C16         0      34.052  20.013 191.714  1.00  0.00     0.049 A 
ENDBRANCH   6  18
TORSDOF 2
ENDMDL
