MODEL 1
REMARK VINA RESULT:    -3.661      0.000      0.000
REMARK INTER + INTRA:          -4.517
REMARK INTER:                  -4.517
REMARK INTRA:                   0.000
REMARK UNBOUND:                 0.000
REMARK  Name = BCBL.pdb
REMARK  4 active torsions:
REMARK  status: ('A' for Active; 'I' for Inactive)
REMARK    1  A    between atoms: O1_1  and  C6_6
REMARK    2  A    between atoms: O3_3  and  C17_17
REMARK    3  A    between atoms: O4_4  and  C18_18
REMARK    4  A    between atoms: O5_5  and  C21_21
REMARK                            x       y       z     vdW  Elec       q    Type
REMARK                         _______ _______ _______ _____ _____    ______ ____
ROOT
ATOM      1  O2  UNK B   0      37.481  15.071 196.842  0.00  0.00    +0.000 OA
ATOM      2  C6  UNK B   0      36.815  15.074 199.200  0.00  0.00    +0.000 C 
ATOM      3  C7  UNK B   0      37.600  13.759 199.473  0.00  0.00    +0.000 C 
ATOM      4  C8  UNK B   0      37.724  16.257 199.617  0.00  0.00    +0.000 C 
ATOM      5  C9  UNK B   0      38.553  14.216 200.554  0.00  0.00    +0.000 A 
ATOM      6  C10 UNK B   0      38.617  15.611 200.628  0.00  0.00    +0.000 A 
ATOM      7  C11 UNK B   0      36.379  15.167 197.743  0.00  0.00    +0.000 C 
ATOM      8  C12 UNK B   0      38.281  13.233 198.230  0.00  0.00    +0.000 A 
ATOM      9  C13 UNK B   0      38.204  13.918 197.009  0.00  0.00    +0.000 A 
ATOM     10  C14 UNK B   0      39.298  13.432 201.423  0.00  0.00    +0.000 A 
ATOM     11  C15 UNK B   0      39.448  16.246 201.539  0.00  0.00    +0.000 A 
ATOM     12  C16 UNK B   0      39.008  12.032 198.272  0.00  0.00    +0.000 A 
ATOM     13  C17 UNK B   0      40.130  14.063 202.351  0.00  0.00    +0.000 A 
ATOM     14  C18 UNK B   0      40.208  15.461 202.406  0.00  0.00    +0.000 A 
ATOM     15  C19 UNK B   0      38.893  13.458 195.883  0.00  0.00    +0.000 A 
ATOM     16  C20 UNK B   0      39.678  11.560 197.141  0.00  0.00    +0.000 A 
ATOM     17  C21 UNK B   0      39.629  12.278 195.950  0.00  0.00    +0.000 A 
ENDROOT
BRANCH   2  18
ATOM     18  O1  UNK B   0      35.623  15.094 199.995  0.00  0.00    +0.000 OA
ATOM     19  H28 UNK B   0      35.459  16.010 200.275  0.00  0.00    +0.000 HD
ENDBRANCH   2  18
BRANCH  13  20
ATOM     20  O3  UNK B   0      40.869  13.300 203.207  0.00  0.00    +0.000 OA
ATOM     21  H33 UNK B   0      40.363  12.503 203.439  0.00  0.00    +0.000 HD
ENDBRANCH  13  20
BRANCH  14  22
ATOM     22  O4  UNK B   0      41.025  16.070 203.311  0.00  0.00    +0.000 OA
ATOM     23  H34 UNK B   0      40.939  15.619 204.168  0.00  0.00    +0.000 HD
ENDBRANCH  14  22
BRANCH  17  24
ATOM     24  O5  UNK B   0      40.291  11.823 194.852  0.00  0.00    +0.000 OA
ATOM     25  H35 UNK B   0      39.931  12.264 194.062  0.00  0.00    +0.000 HD
ENDBRANCH  17  24
TORSDOF 4
REMARK  Name = HEMCA.pdb
REMARK  4 active torsions:
REMARK  status: ('A' for Active; 'I' for Inactive)
REMARK    1  A    between atoms: C5_5  and  O19_19
REMARK    2  A    between atoms: C6_6  and  O18_18
REMARK    3  A    between atoms: C7_7  and  O20_20
REMARK    4  A    between atoms: C17_17  and  O21_21
REMARK                            x       y       z     vdW  Elec       q    Type
REMARK                         _______ _______ _______ _____ _____    ______ ____
ROOT
ATOM      1  C1  UNK H   1      42.586  15.634 199.592  0.00  0.00    +0.000 A 
ATOM      2  C2  UNK H   1      41.937  14.629 199.005  0.00  0.00    +0.000 A 
ATOM      3  C3  UNK H   1      43.591  15.351 200.635  0.00  0.00    +0.000 A 
ATOM      4  C4  UNK H   1      42.211  13.248 199.404  0.00  0.00    +0.000 A 
ATOM      5  C5  UNK H   1      43.825  14.093 201.003  0.00  0.00    +0.000 A 
ATOM      6  C6  UNK H   1      43.102  12.994 200.361  0.00  0.00    +0.000 A 
ATOM      7  C7  UNK H   1      42.951  18.072 200.149  0.00  0.00    +0.000 C 
ATOM      8  C8  UNK H   1      42.333  17.048 199.291  0.00  0.00    +0.000 C 
ATOM      9  C9  UNK H   1      44.344  17.691 200.651  0.00  0.00    +0.000 C 
ATOM     10  O10 UNK H   1      44.319  16.387 201.221  0.00  0.00    +0.000 OA
ATOM     11  C11 UNK H   1      42.801  19.417 199.367  0.00  0.00    +0.000 C 
ATOM     12  C12 UNK H   1      41.634  19.032 198.504  0.00  0.00    +0.000 C 
ATOM     13  C13 UNK H   1      41.503  17.619 198.418  0.00  0.00    +0.000 C 
ATOM     14  C14 UNK H   1      40.892  19.858 197.778  0.00  0.00    +0.000 C 
ATOM     15  C15 UNK H   1      39.884  19.267 196.883  0.00  0.00    +0.000 C 
ATOM     16  C16 UNK H   1      40.580  16.998 197.470  0.00  0.00    +0.000 C 
ATOM     17  C17 UNK H   1      39.795  17.792 196.738  0.00  0.00    +0.000 C 
ATOM     18  O22 UNK H   1      39.151  19.999 196.210  0.00  0.00    +0.000 OA
ENDROOT
BRANCH   6  19
ATOM     19  O18 UNK H   1      43.357  11.680 200.740  0.00  0.00    +0.000 OA
ATOM     20  H9  UNK H   1      42.514  11.087 200.538  0.00  0.00    +0.000 HD
ENDBRANCH   6  19
BRANCH   5  21
ATOM     21  O19 UNK H   1      44.776  13.822 201.979  0.00  0.00    +0.000 OA
ATOM     22  H10 UNK H   1      45.525  14.557 201.953  0.00  0.00    +0.000 HD
ENDBRANCH   5  21
BRANCH   7  23
ATOM     23  O20 UNK H   1      42.069  18.126 201.271  0.00  0.00    +0.000 OA
ATOM     24  H11 UNK H   1      41.927  17.158 201.653  0.00  0.00    +0.000 HD
ENDBRANCH   7  23
BRANCH  17  25
ATOM     25  O21 UNK H   1      38.894  17.236 195.838  0.00  0.00    +0.000 OA
ATOM     26  H12 UNK H   1      39.282  16.334 195.466  0.00  0.00    +0.000 HD
ENDBRANCH  17  25
TORSDOF 4
ENDMDL
MODEL 2
REMARK VINA RESULT:    -3.660      3.853      6.186
REMARK INTER + INTRA:          -4.515
REMARK INTER:                  -4.515
REMARK INTRA:                   0.000
REMARK UNBOUND:                 0.000
REMARK  Name = BCBL.pdb
REMARK  4 active torsions:
REMARK  status: ('A' for Active; 'I' for Inactive)
REMARK    1  A    between atoms: O1_1  and  C6_6
REMARK    2  A    between atoms: O3_3  and  C17_17
REMARK    3  A    between atoms: O4_4  and  C18_18
REMARK    4  A    between atoms: O5_5  and  C21_21
REMARK                            x       y       z     vdW  Elec       q    Type
REMARK                         _______ _______ _______ _____ _____    ______ ____
ROOT
ATOM      1  O2  UNK B   0      40.589  13.339 190.704  0.00  0.00    +0.000 OA
ATOM      2  C6  UNK B   0      39.615  11.445 191.916  0.00  0.00    +0.000 C 
ATOM      3  C7  UNK B   0      41.022  10.917 192.317  0.00  0.00    +0.000 C 
ATOM      4  C8  UNK B   0      39.073  12.281 193.101  0.00  0.00    +0.000 C 
ATOM      5  C9  UNK B   0      40.911  10.929 193.825  0.00  0.00    +0.000 A 
ATOM      6  C10 UNK B   0      39.821  11.692 194.255  0.00  0.00    +0.000 A 
ATOM      7  C11 UNK B   0      39.673  12.247 190.622  0.00  0.00    +0.000 C 
ATOM      8  C12 UNK B   0      42.134  11.785 191.773  0.00  0.00    +0.000 A 
ATOM      9  C13 UNK B   0      41.860  12.941 191.027  0.00  0.00    +0.000 A 
ATOM     10  C14 UNK B   0      41.722  10.282 194.746  0.00  0.00    +0.000 A 
ATOM     11  C15 UNK B   0      39.544  11.855 195.604  0.00  0.00    +0.000 A 
ATOM     12  C16 UNK B   0      43.478  11.445 192.001  0.00  0.00    +0.000 A 
ATOM     13  C17 UNK B   0      41.444  10.432 196.107  0.00  0.00    +0.000 A 
ATOM     14  C18 UNK B   0      40.365  11.217 196.533  0.00  0.00    +0.000 A 
ATOM     15  C19 UNK B   0      42.894  13.773 190.587  0.00  0.00    +0.000 A 
ATOM     16  C20 UNK B   0      44.511  12.265 191.542  0.00  0.00    +0.000 A 
ATOM     17  C21 UNK B   0      44.219  13.433 190.843  0.00  0.00    +0.000 A 
ENDROOT
BRANCH   2  18
ATOM     18  O1  UNK B   0      38.737  10.337 191.681  0.00  0.00    +0.000 OA
ATOM     19  H28 UNK B   0      38.182  10.217 192.470  0.00  0.00    +0.000 HD
ENDBRANCH   2  18
BRANCH  13  20
ATOM     20  O3  UNK B   0      42.239   9.804 197.020  0.00  0.00    +0.000 OA
ATOM     21  H33 UNK B   0      43.171   9.977 196.802  0.00  0.00    +0.000 HD
ENDBRANCH  13  20
BRANCH  14  22
ATOM     22  O4  UNK B   0      40.102  11.362 197.863  0.00  0.00    +0.000 OA
ATOM     23  H34 UNK B   0      40.833  11.851 198.278  0.00  0.00    +0.000 HD
ENDBRANCH  14  22
BRANCH  17  24
ATOM     24  O5  UNK B   0      45.227  14.235 190.405  0.00  0.00    +0.000 OA
ATOM     25  H35 UNK B   0      44.846  14.958 189.876  0.00  0.00    +0.000 HD
ENDBRANCH  17  24
TORSDOF 4
REMARK  Name = HEMCA.pdb
REMARK  4 active torsions:
REMARK  status: ('A' for Active; 'I' for Inactive)
REMARK    1  A    between atoms: C5_5  and  O19_19
REMARK    2  A    between atoms: C6_6  and  O18_18
REMARK    3  A    between atoms: C7_7  and  O20_20
REMARK    4  A    between atoms: C17_17  and  O21_21
REMARK                            x       y       z     vdW  Elec       q    Type
REMARK                         _______ _______ _______ _____ _____    ______ ____
ROOT
ATOM      1  C1  UNK H   1      42.256  14.366 196.188  0.00  0.00    +0.000 A 
ATOM      2  C2  UNK H   1      42.844  13.870 195.100  0.00  0.00    +0.000 A 
ATOM      3  C3  UNK H   1      42.771  14.015 197.526  0.00  0.00    +0.000 A 
ATOM      4  C4  UNK H   1      43.990  12.969 195.231  0.00  0.00    +0.000 A 
ATOM      5  C5  UNK H   1      43.805  13.184 197.639  0.00  0.00    +0.000 A 
ATOM      6  C6  UNK H   1      44.441  12.636 196.439  0.00  0.00    +0.000 A 
ATOM      7  C7  UNK H   1      40.382  15.541 197.411  0.00  0.00    +0.000 C 
ATOM      8  C8  UNK H   1      41.071  15.229 196.147  0.00  0.00    +0.000 C 
ATOM      9  C9  UNK H   1      41.326  15.688 198.603  0.00  0.00    +0.000 C 
ATOM     10  O10 UNK H   1      42.203  14.568 198.674  0.00  0.00    +0.000 OA
ATOM     11  C11 UNK H   1      39.430  16.736 197.083  0.00  0.00    +0.000 C 
ATOM     12  C12 UNK H   1      39.310  16.513 195.603  0.00  0.00    +0.000 C 
ATOM     13  C13 UNK H   1      40.380  15.715 195.115  0.00  0.00    +0.000 C 
ATOM     14  C14 UNK H   1      38.428  17.088 194.794  0.00  0.00    +0.000 C 
ATOM     15  C15 UNK H   1      38.567  16.850 193.349  0.00  0.00    +0.000 C 
ATOM     16  C16 UNK H   1      40.604  15.538 193.682  0.00  0.00    +0.000 C 
ATOM     17  C17 UNK H   1      39.726  16.077 192.833  0.00  0.00    +0.000 C 
ATOM     18  O22 UNK H   1      37.753  17.341 192.560  0.00  0.00    +0.000 OA
ENDROOT
BRANCH   6  19
ATOM     19  O18 UNK H   1      45.527  11.777 196.561  0.00  0.00    +0.000 OA
ATOM     20  H9  UNK H   1      45.261  10.958 197.165  0.00  0.00    +0.000 HD
ENDBRANCH   6  19
BRANCH   5  21
ATOM     21  O19 UNK H   1      44.298  12.858 198.897  0.00  0.00    +0.000 OA
ATOM     22  H10 UNK H   1      43.541  12.403 199.463  0.00  0.00    +0.000 HD
ENDBRANCH   5  21
BRANCH   7  23
ATOM     23  O20 UNK H   1      39.565  14.388 197.624  0.00  0.00    +0.000 OA
ATOM     24  H11 UNK H   1      39.754  13.681 196.871  0.00  0.00    +0.000 HD
ENDBRANCH   7  23
BRANCH  17  25
ATOM     25  O21 UNK H   1      39.897  15.914 191.463  0.00  0.00    +0.000 OA
ATOM     26  H12 UNK H   1      39.375  15.061 191.144  0.00  0.00    +0.000 HD
ENDBRANCH  17  25
TORSDOF 4
ENDMDL
MODEL 3
REMARK VINA RESULT:    -3.659      5.598      8.545
REMARK INTER + INTRA:          -4.514
REMARK INTER:                  -4.514
REMARK INTRA:                   0.000
REMARK UNBOUND:                 0.000
REMARK  Name = BCBL.pdb
REMARK  4 active torsions:
REMARK  status: ('A' for Active; 'I' for Inactive)
REMARK    1  A    between atoms: O1_1  and  C6_6
REMARK    2  A    between atoms: O3_3  and  C17_17
REMARK    3  A    between atoms: O4_4  and  C18_18
REMARK    4  A    between atoms: O5_5  and  C21_21
REMARK                            x       y       z     vdW  Elec       q    Type
REMARK                         _______ _______ _______ _____ _____    ______ ____
ROOT
ATOM      1  O2  UNK B   0      35.013  12.994 194.604  0.00  0.00    +0.000 OA
ATOM      2  C6  UNK B   0      37.017  14.085 195.498  0.00  0.00    +0.000 C 
ATOM      3  C7  UNK B   0      37.404  12.815 196.309  0.00  0.00    +0.000 C 
ATOM      4  C8  UNK B   0      37.815  14.054 194.171  0.00  0.00    +0.000 C 
ATOM      5  C9  UNK B   0      38.773  12.521 195.740  0.00  0.00    +0.000 A 
ATOM      6  C10 UNK B   0      38.995  13.216 194.547  0.00  0.00    +0.000 A 
ATOM      7  C11 UNK B   0      35.512  14.155 195.265  0.00  0.00    +0.000 C 
ATOM      8  C12 UNK B   0      36.406  11.694 196.127  0.00  0.00    +0.000 A 
ATOM      9  C13 UNK B   0      35.296  11.836 195.282  0.00  0.00    +0.000 A 
ATOM     10  C14 UNK B   0      39.760  11.700 196.268  0.00  0.00    +0.000 A 
ATOM     11  C15 UNK B   0      40.182  13.076 193.842  0.00  0.00    +0.000 A 
ATOM     12  C16 UNK B   0      36.568  10.479 196.812  0.00  0.00    +0.000 A 
ATOM     13  C17 UNK B   0      40.962  11.562 195.571  0.00  0.00    +0.000 A 
ATOM     14  C18 UNK B   0      41.170  12.242 194.363  0.00  0.00    +0.000 A 
ATOM     15  C19 UNK B   0      34.416  10.770 195.069  0.00  0.00    +0.000 A 
ATOM     16  C20 UNK B   0      35.677   9.422 196.617  0.00  0.00    +0.000 A 
ATOM     17  C21 UNK B   0      34.607   9.564 195.738  0.00  0.00    +0.000 A 
ENDROOT
BRANCH   2  18
ATOM     18  O1  UNK B   0      37.380  15.256 196.239  0.00  0.00    +0.000 OA
ATOM     19  H28 UNK B   0      38.349  15.334 196.227  0.00  0.00    +0.000 HD
ENDBRANCH   2  18
BRANCH  13  20
ATOM     20  O3  UNK B   0      41.936  10.753 196.079  0.00  0.00    +0.000 OA
ATOM     21  H33 UNK B   0      41.763  10.605 197.025  0.00  0.00    +0.000 HD
ENDBRANCH  13  20
BRANCH  14  22
ATOM     22  O4  UNK B   0      42.345  12.099 193.686  0.00  0.00    +0.000 OA
ATOM     23  H34 UNK B   0      42.436  12.830 193.052  0.00  0.00    +0.000 HD
ENDBRANCH  14  22
BRANCH  17  24
ATOM     24  O5  UNK B   0      33.745   8.530 195.540  0.00  0.00    +0.000 OA
ATOM     25  H35 UNK B   0      33.272   8.350 196.372  0.00  0.00    +0.000 HD
ENDBRANCH  17  24
TORSDOF 4
REMARK  Name = HEMCA.pdb
REMARK  4 active torsions:
REMARK  status: ('A' for Active; 'I' for Inactive)
REMARK    1  A    between atoms: C5_5  and  O19_19
REMARK    2  A    between atoms: C6_6  and  O18_18
REMARK    3  A    between atoms: C7_7  and  O20_20
REMARK    4  A    between atoms: C17_17  and  O21_21
REMARK                            x       y       z     vdW  Elec       q    Type
REMARK                         _______ _______ _______ _____ _____    ______ ____
ROOT
ATOM      1  C1  UNK H   1      39.309   9.736 192.397  0.00  0.00    +0.000 A 
ATOM      2  C2  UNK H   1      38.452   9.607 193.410  0.00  0.00    +0.000 A 
ATOM      3  C3  UNK H   1      40.590   9.003 192.422  0.00  0.00    +0.000 A 
ATOM      4  C4  UNK H   1      38.786   8.750 194.549  0.00  0.00    +0.000 A 
ATOM      5  C5  UNK H   1      40.893   8.237 193.466  0.00  0.00    +0.000 A 
ATOM      6  C6  UNK H   1      39.951   8.106 194.579  0.00  0.00    +0.000 A 
ATOM      7  C7  UNK H   1      40.182  10.843 190.300  0.00  0.00    +0.000 C 
ATOM      8  C8  UNK H   1      39.077  10.616 191.247  0.00  0.00    +0.000 C 
ATOM      9  C9  UNK H   1      41.069   9.617 190.089  0.00  0.00    +0.000 C 
ATOM     10  O10 UNK H   1      41.475   9.084 191.346  0.00  0.00    +0.000 OA
ATOM     11  C11 UNK H   1      39.524  11.491 189.040  0.00  0.00    +0.000 C 
ATOM     12  C12 UNK H   1      38.297  12.048 189.703  0.00  0.00    +0.000 C 
ATOM     13  C13 UNK H   1      38.040  11.396 190.939  0.00  0.00    +0.000 C 
ATOM     14  C14 UNK H   1      37.451  12.923 189.174  0.00  0.00    +0.000 C 
ATOM     15  C15 UNK H   1      36.226  13.234 189.928  0.00  0.00    +0.000 C 
ATOM     16  C16 UNK H   1      36.790  11.609 191.666  0.00  0.00    +0.000 C 
ATOM     17  C17 UNK H   1      35.922  12.500 191.183  0.00  0.00    +0.000 C 
ATOM     18  O22 UNK H   1      35.423  14.064 189.489  0.00  0.00    +0.000 OA
ENDROOT
BRANCH   6  19
ATOM     19  O18 UNK H   1      40.268   7.296 195.664  0.00  0.00    +0.000 OA
ATOM     20  H9  UNK H   1      39.623   6.466 195.682  0.00  0.00    +0.000 HD
ENDBRANCH   6  19
BRANCH   5  21
ATOM     21  O19 UNK H   1      42.095   7.539 193.488  0.00  0.00    +0.000 OA
ATOM     22  H10 UNK H   1      42.283   7.134 192.538  0.00  0.00    +0.000 HD
ENDBRANCH   5  21
BRANCH   7  23
ATOM     23  O20 UNK H   1      40.957  11.853 190.948  0.00  0.00    +0.000 OA
ATOM     24  H11 UNK H   1      41.699  12.201 190.291  0.00  0.00    +0.000 HD
ENDBRANCH   7  23
BRANCH  17  25
ATOM     25  O21 UNK H   1      34.731  12.742 191.856  0.00  0.00    +0.000 OA
ATOM     26  H12 UNK H   1      34.053  13.217 191.210  0.00  0.00    +0.000 HD
ENDBRANCH  17  25
TORSDOF 4
ENDMDL
MODEL 4
REMARK VINA RESULT:    -3.658      4.281      8.413
REMARK INTER + INTRA:          -4.513
REMARK INTER:                  -4.513
REMARK INTRA:                   0.000
REMARK UNBOUND:                 0.000
REMARK  Name = BCBL.pdb
REMARK  4 active torsions:
REMARK  status: ('A' for Active; 'I' for Inactive)
REMARK    1  A    between atoms: O1_1  and  C6_6
REMARK    2  A    between atoms: O3_3  and  C17_17
REMARK    3  A    between atoms: O4_4  and  C18_18
REMARK    4  A    between atoms: O5_5  and  C21_21
REMARK                            x       y       z     vdW  Elec       q    Type
REMARK                         _______ _______ _______ _____ _____    ______ ____
ROOT
ATOM      1  O2  UNK B   0      37.324  17.177 196.648  0.00  0.00    +0.000 OA
ATOM      2  C6  UNK B   0      36.852  16.236 194.435  0.00  0.00    +0.000 C 
ATOM      3  C7  UNK B   0      36.791  17.652 193.793  0.00  0.00    +0.000 C 
ATOM      4  C8  UNK B   0      38.276  15.676 194.198  0.00  0.00    +0.000 C 
ATOM      5  C9  UNK B   0      37.875  17.536 192.746  0.00  0.00    +0.000 A 
ATOM      6  C10 UNK B   0      38.701  16.431 192.979  0.00  0.00    +0.000 A 
ATOM      7  C11 UNK B   0      36.489  16.282 195.914  0.00  0.00    +0.000 C 
ATOM      8  C12 UNK B   0      37.025  18.749 194.807  0.00  0.00    +0.000 A 
ATOM      9  C13 UNK B   0      37.296  18.455 196.152  0.00  0.00    +0.000 A 
ATOM     10  C14 UNK B   0      38.094  18.357 191.649  0.00  0.00    +0.000 A 
ATOM     11  C15 UNK B   0      39.775  16.148 192.150  0.00  0.00    +0.000 A 
ATOM     12  C16 UNK B   0      36.970  20.098 194.421  0.00  0.00    +0.000 A 
ATOM     13  C17 UNK B   0      39.168  18.073 190.802  0.00  0.00    +0.000 A 
ATOM     14  C18 UNK B   0      40.006  16.979 191.053  0.00  0.00    +0.000 A 
ATOM     15  C19 UNK B   0      37.577  19.474 197.066  0.00  0.00    +0.000 A 
ATOM     16  C20 UNK B   0      37.230  21.117 195.339  0.00  0.00    +0.000 A 
ATOM     17  C21 UNK B   0      37.543  20.805 196.659  0.00  0.00    +0.000 A 
ENDROOT
BRANCH   2  18
ATOM     18  O1  UNK B   0      35.897  15.379 193.797  0.00  0.00    +0.000 OA
ATOM     19  H28 UNK B   0      35.198  15.172 194.440  0.00  0.00    +0.000 HD
ENDBRANCH   2  18
BRANCH  13  20
ATOM     20  O3  UNK B   0      39.394  18.878 189.723  0.00  0.00    +0.000 OA
ATOM     21  H33 UNK B   0      38.553  19.025 189.257  0.00  0.00    +0.000 HD
ENDBRANCH  13  20
BRANCH  14  22
ATOM     22  O4  UNK B   0      41.054  16.710 190.224  0.00  0.00    +0.000 OA
ATOM     23  H34 UNK B   0      41.064  17.364 189.505  0.00  0.00    +0.000 HD
ENDBRANCH  14  22
BRANCH  17  24
ATOM     24  O5  UNK B   0      37.805  21.798 197.551  0.00  0.00    +0.000 OA
ATOM     25  H35 UNK B   0      37.886  22.641 197.070  0.00  0.00    +0.000 HD
ENDBRANCH  17  24
TORSDOF 4
REMARK  Name = HEMCA.pdb
REMARK  4 active torsions:
REMARK  status: ('A' for Active; 'I' for Inactive)
REMARK    1  A    between atoms: C5_5  and  O19_19
REMARK    2  A    between atoms: C6_6  and  O18_18
REMARK    3  A    between atoms: C7_7  and  O20_20
REMARK    4  A    between atoms: C17_17  and  O21_21
REMARK                            x       y       z     vdW  Elec       q    Type
REMARK                         _______ _______ _______ _____ _____    ______ ____
ROOT
ATOM      1  C1  UNK H   1      41.986  18.816 193.564  0.00  0.00    +0.000 A 
ATOM      2  C2  UNK H   1      40.871  19.416 193.978  0.00  0.00    +0.000 A 
ATOM      3  C3  UNK H   1      42.704  19.333 192.383  0.00  0.00    +0.000 A 
ATOM      4  C4  UNK H   1      40.351  20.577 193.254  0.00  0.00    +0.000 A 
ATOM      5  C5  UNK H   1      42.219  20.381 191.721  0.00  0.00    +0.000 A 
ATOM      6  C6  UNK H   1      40.988  21.030 192.175  0.00  0.00    +0.000 A 
ATOM      7  C7  UNK H   1      43.654  16.917 193.529  0.00  0.00    +0.000 C 
ATOM      8  C8  UNK H   1      42.543  17.616 194.198  0.00  0.00    +0.000 C 
ATOM      9  C9  UNK H   1      44.622  17.855 192.810  0.00  0.00    +0.000 C 
ATOM     10  O10 UNK H   1      43.903  18.751 191.969  0.00  0.00    +0.000 OA
ATOM     11  C11 UNK H   1      44.242  15.946 194.603  0.00  0.00    +0.000 C 
ATOM     12  C12 UNK H   1      43.026  15.834 195.478  0.00  0.00    +0.000 C 
ATOM     13  C13 UNK H   1      42.135  16.920 195.260  0.00  0.00    +0.000 C 
ATOM     14  C14 UNK H   1      42.838  14.946 196.445  0.00  0.00    +0.000 C 
ATOM     15  C15 UNK H   1      41.641  15.094 197.288  0.00  0.00    +0.000 C 
ATOM     16  C16 UNK H   1      40.990  17.152 196.138  0.00  0.00    +0.000 C 
ATOM     17  C17 UNK H   1      40.748  16.267 197.108  0.00  0.00    +0.000 C 
ATOM     18  O22 UNK H   1      41.408  14.273 198.182  0.00  0.00    +0.000 OA
ENDROOT
BRANCH   6  19
ATOM     19  O18 UNK H   1      40.490  22.131 191.487  0.00  0.00    +0.000 OA
ATOM     20  H9  UNK H   1      41.230  22.504 190.840  0.00  0.00    +0.000 HD
ENDBRANCH   6  19
BRANCH   5  21
ATOM     21  O19 UNK H   1      42.897  20.875 190.613  0.00  0.00    +0.000 OA
ATOM     22  H10 UNK H   1      42.639  21.882 190.464  0.00  0.00    +0.000 HD
ENDBRANCH   5  21
BRANCH   7  23
ATOM     23  O20 UNK H   1      42.987  16.121 192.548  0.00  0.00    +0.000 OA
ATOM     24  H11 UNK H   1      42.644  16.737 191.770  0.00  0.00    +0.000 HD
ENDBRANCH   7  23
BRANCH  17  25
ATOM     25  O21 UNK H   1      39.659  16.446 197.952  0.00  0.00    +0.000 OA
ATOM     26  H12 UNK H   1      39.993  16.526 198.944  0.00  0.00    +0.000 HD
ENDBRANCH  17  25
TORSDOF 4
ENDMDL
MODEL 5
REMARK VINA RESULT:    -3.657      4.648      8.100
REMARK INTER + INTRA:          -4.512
REMARK INTER:                  -4.512
REMARK INTRA:                   0.000
REMARK UNBOUND:                 0.000
REMARK  Name = BCBL.pdb
REMARK  4 active torsions:
REMARK  status: ('A' for Active; 'I' for Inactive)
REMARK    1  A    between atoms: O1_1  and  C6_6
REMARK    2  A    between atoms: O3_3  and  C17_17
REMARK    3  A    between atoms: O4_4  and  C18_18
REMARK    4  A    between atoms: O5_5  and  C21_21
REMARK                            x       y       z     vdW  Elec       q    Type
REMARK                         _______ _______ _______ _____ _____    ______ ____
ROOT
ATOM      1  O2  UNK B   0      41.388  13.545 197.904  0.00  0.00    +0.000 OA
ATOM      2  C6  UNK B   0      40.691  15.737 197.059  0.00  0.00    +0.000 C 
ATOM      3  C7  UNK B   0      42.129  16.310 197.225  0.00  0.00    +0.000 C 
ATOM      4  C8  UNK B   0      40.533  15.292 195.584  0.00  0.00    +0.000 C 
ATOM      5  C9  UNK B   0      42.432  16.732 195.805  0.00  0.00    +0.000 A 
ATOM      6  C10 UNK B   0      41.537  16.159 194.895  0.00  0.00    +0.000 A 
ATOM      7  C11 UNK B   0      40.434  14.598 198.037  0.00  0.00    +0.000 C 
ATOM      8  C12 UNK B   0      43.090  15.286 197.784  0.00  0.00    +0.000 A 
ATOM      9  C13 UNK B   0      42.679  13.976 198.067  0.00  0.00    +0.000 A 
ATOM     10  C14 UNK B   0      43.431  17.587 195.363  0.00  0.00    +0.000 A 
ATOM     11  C15 UNK B   0      41.646  16.397 193.533  0.00  0.00    +0.000 A 
ATOM     12  C16 UNK B   0      44.427  15.632 198.039  0.00  0.00    +0.000 A 
ATOM     13  C17 UNK B   0      43.542  17.841 193.994  0.00  0.00    +0.000 A 
ATOM     14  C18 UNK B   0      42.658  17.245 193.084  0.00  0.00    +0.000 A 
ATOM     15  C19 UNK B   0      43.592  13.019 198.520  0.00  0.00    +0.000 A 
ATOM     16  C20 UNK B   0      45.335  14.682 198.512  0.00  0.00    +0.000 A 
ATOM     17  C21 UNK B   0      44.920  13.374 198.744  0.00  0.00    +0.000 A 
ENDROOT
BRANCH   2  18
ATOM     18  O1  UNK B   0      39.732  16.760 197.347  0.00  0.00    +0.000 OA
ATOM     19  H28 UNK B   0      39.948  17.540 196.809  0.00  0.00    +0.000 HD
ENDBRANCH   2  18
BRANCH  13  20
ATOM     20  O3  UNK B   0      44.524  18.676 193.550  0.00  0.00    +0.000 OA
ATOM     21  H33 UNK B   0      44.866  18.341 192.703  0.00  0.00    +0.000 HD
ENDBRANCH  13  20
BRANCH  14  22
ATOM     22  O4  UNK B   0      42.774  17.494 191.749  0.00  0.00    +0.000 OA
ATOM     23  H34 UNK B   0      42.585  18.434 191.584  0.00  0.00    +0.000 HD
ENDBRANCH  14  22
BRANCH  17  24
ATOM     24  O5  UNK B   0      45.807  12.446 199.196  0.00  0.00    +0.000 OA
ATOM     25  H35 UNK B   0      46.483  12.297 198.512  0.00  0.00    +0.000 HD
ENDBRANCH  17  24
TORSDOF 4
REMARK  Name = HEMCA.pdb
REMARK  4 active torsions:
REMARK  status: ('A' for Active; 'I' for Inactive)
REMARK    1  A    between atoms: C5_5  and  O19_19
REMARK    2  A    between atoms: C6_6  and  O18_18
REMARK    3  A    between atoms: C7_7  and  O20_20
REMARK    4  A    between atoms: C17_17  and  O21_21
REMARK                            x       y       z     vdW  Elec       q    Type
REMARK                         _______ _______ _______ _____ _____    ______ ____
ROOT
ATOM      1  C1  UNK H   1      44.534  14.071 193.029  0.00  0.00    +0.000 A 
ATOM      2  C2  UNK H   1      44.780  14.216 194.331  0.00  0.00    +0.000 A 
ATOM      3  C3  UNK H   1      45.375  14.773 192.039  0.00  0.00    +0.000 A 
ATOM      4  C4  UNK H   1      45.873  15.080 194.778  0.00  0.00    +0.000 A 
ATOM      5  C5  UNK H   1      46.359  15.568 192.454  0.00  0.00    +0.000 A 
ATOM      6  C6  UNK H   1      46.617  15.730 193.885  0.00  0.00    +0.000 A 
ATOM      7  C7  UNK H   1      43.120  13.354 191.060  0.00  0.00    +0.000 C 
ATOM      8  C8  UNK H   1      43.425  13.270 192.498  0.00  0.00    +0.000 C 
ATOM      9  C9  UNK H   1      44.359  13.524 190.181  0.00  0.00    +0.000 C 
ATOM     10  O10 UNK H   1      45.166  14.589 190.672  0.00  0.00    +0.000 OA
ATOM     11  C11 UNK H   1      42.176  12.146 190.762  0.00  0.00    +0.000 C 
ATOM     12  C12 UNK H   1      41.648  11.941 192.153  0.00  0.00    +0.000 C 
ATOM     13  C13 UNK H   1      42.505  12.532 193.121  0.00  0.00    +0.000 C 
ATOM     14  C14 UNK H   1      40.609  11.187 192.493  0.00  0.00    +0.000 C 
ATOM     15  C15 UNK H   1      40.340  10.998 193.927  0.00  0.00    +0.000 C 
ATOM     16  C16 UNK H   1      42.323  12.285 194.549  0.00  0.00    +0.000 C 
ATOM     17  C17 UNK H   1      41.276  11.554 194.937  0.00  0.00    +0.000 C 
ATOM     18  O22 UNK H   1      39.367  10.329 194.290  0.00  0.00    +0.000 OA
ENDROOT
BRANCH   6  19
ATOM     19  O18 UNK H   1      47.653  16.553 194.314  0.00  0.00    +0.000 OA
ATOM     20  H9  UNK H   1      48.418  16.558 193.593  0.00  0.00    +0.000 HD
ENDBRANCH   6  19
BRANCH   5  21
ATOM     21  O19 UNK H   1      47.157  16.224 191.525  0.00  0.00    +0.000 OA
ATOM     22  H10 UNK H   1      47.207  17.245 191.763  0.00  0.00    +0.000 HD
ENDBRANCH   5  21
BRANCH   7  23
ATOM     23  O20 UNK H   1      42.337  14.546 190.968  0.00  0.00    +0.000 OA
ATOM     24  H11 UNK H   1      41.544  14.498 191.654  0.00  0.00    +0.000 HD
ENDBRANCH   7  23
BRANCH  17  25
ATOM     25  O21 UNK H   1      41.061  11.313 196.288  0.00  0.00    +0.000 OA
ATOM     26  H12 UNK H   1      41.774  10.627 196.639  0.00  0.00    +0.000 HD
ENDBRANCH  17  25
TORSDOF 4
ENDMDL
MODEL 6
REMARK VINA RESULT:    -3.657      4.780      9.215
REMARK INTER + INTRA:          -4.512
REMARK INTER:                  -4.512
REMARK INTRA:                   0.000
REMARK UNBOUND:                 0.000
REMARK  Name = BCBL.pdb
REMARK  4 active torsions:
REMARK  status: ('A' for Active; 'I' for Inactive)
REMARK    1  A    between atoms: O1_1  and  C6_6
REMARK    2  A    between atoms: O3_3  and  C17_17
REMARK    3  A    between atoms: O4_4  and  C18_18
REMARK    4  A    between atoms: O5_5  and  C21_21
REMARK                            x       y       z     vdW  Elec       q    Type
REMARK                         _______ _______ _______ _____ _____    ______ ____
ROOT
ATOM      1  O2  UNK B   0      37.573   9.627 199.700  0.00  0.00    +0.000 OA
ATOM      2  C6  UNK B   0      38.302  11.966 199.635  0.00  0.00    +0.000 C 
ATOM      3  C7  UNK B   0      38.452  11.926 198.086  0.00  0.00    +0.000 C 
ATOM      4  C8  UNK B   0      36.913  12.571 199.955  0.00  0.00    +0.000 C 
ATOM      5  C9  UNK B   0      37.501  13.030 197.681  0.00  0.00    +0.000 A 
ATOM      6  C10 UNK B   0      36.646  13.384 198.729  0.00  0.00    +0.000 A 
ATOM      7  C11 UNK B   0      38.484  10.581 200.244  0.00  0.00    +0.000 C 
ATOM      8  C12 UNK B   0      38.105  10.570 197.514  0.00  0.00    +0.000 A 
ATOM      9  C13 UNK B   0      37.671   9.520 198.336  0.00  0.00    +0.000 A 
ATOM     10  C14 UNK B   0      37.424  13.683 196.459  0.00  0.00    +0.000 A 
ATOM     11  C15 UNK B   0      35.677  14.363 198.567  0.00  0.00    +0.000 A 
ATOM     12  C16 UNK B   0      38.216  10.331 196.135  0.00  0.00    +0.000 A 
ATOM     13  C17 UNK B   0      36.458  14.679 196.291  0.00  0.00    +0.000 A 
ATOM     14  C18 UNK B   0      35.588  15.014 197.337  0.00  0.00    +0.000 A 
ATOM     15  C19 UNK B   0      37.288   8.292 197.789  0.00  0.00    +0.000 A 
ATOM     16  C20 UNK B   0      37.855   9.096 195.591  0.00  0.00    +0.000 A 
ATOM     17  C21 UNK B   0      37.382   8.081 196.416  0.00  0.00    +0.000 A 
ENDROOT
BRANCH   2  18
ATOM     18  O1  UNK B   0      39.320  12.805 200.192  0.00  0.00    +0.000 OA
ATOM     19  H28 UNK B   0      38.891  13.585 200.583  0.00  0.00    +0.000 HD
ENDBRANCH   2  18
BRANCH  13  20
ATOM     20  O3  UNK B   0      36.371  15.324 195.092  0.00  0.00    +0.000 OA
ATOM     21  H33 UNK B   0      36.918  16.128 195.124  0.00  0.00    +0.000 HD
ENDBRANCH  13  20
BRANCH  14  22
ATOM     22  O4  UNK B   0      34.646  15.984 197.164  0.00  0.00    +0.000 OA
ATOM     23  H34 UNK B   0      34.185  15.831 196.322  0.00  0.00    +0.000 HD
ENDBRANCH  14  22
BRANCH  17  24
ATOM     24  O5  UNK B   0      37.021   6.882 195.884  0.00  0.00    +0.000 OA
ATOM     25  H35 UNK B   0      36.261   7.016 195.291  0.00  0.00    +0.000 HD
ENDBRANCH  17  24
TORSDOF 4
REMARK  Name = HEMCA.pdb
REMARK  4 active torsions:
REMARK  status: ('A' for Active; 'I' for Inactive)
REMARK    1  A    between atoms: C5_5  and  O19_19
REMARK    2  A    between atoms: C6_6  and  O18_18
REMARK    3  A    between atoms: C7_7  and  O20_20
REMARK    4  A    between atoms: C17_17  and  O21_21
REMARK                            x       y       z     vdW  Elec       q    Type
REMARK                         _______ _______ _______ _____ _____    ______ ____
ROOT
ATOM      1  C1  UNK H   1      33.331  12.182 196.631  0.00  0.00    +0.000 A 
ATOM      2  C2  UNK H   1      34.393  11.435 196.332  0.00  0.00    +0.000 A 
ATOM      3  C3  UNK H   1      32.766  13.096 195.618  0.00  0.00    +0.000 A 
ATOM      4  C4  UNK H   1      35.006  11.530 195.006  0.00  0.00    +0.000 A 
ATOM      5  C5  UNK H   1      33.337  13.187 194.419  0.00  0.00    +0.000 A 
ATOM      6  C6  UNK H   1      34.509  12.370 194.100  0.00  0.00    +0.000 A 
ATOM      7  C7  UNK H   1      31.665  13.208 198.232  0.00  0.00    +0.000 C 
ATOM      8  C8  UNK H   1      32.692  12.190 197.952  0.00  0.00    +0.000 C 
ATOM      9  C9  UNK H   1      30.799  13.552 197.021  0.00  0.00    +0.000 C 
ATOM     10  O10 UNK H   1      31.623  13.845 195.897  0.00  0.00    +0.000 OA
ATOM     11  C11 UNK H   1      30.944  12.725 199.531  0.00  0.00    +0.000 C 
ATOM     12  C12 UNK H   1      32.043  11.860 200.076  0.00  0.00    +0.000 C 
ATOM     13  C13 UNK H   1      32.963  11.494 199.056  0.00  0.00    +0.000 C 
ATOM     14  C14 UNK H   1      32.106  11.355 201.302  0.00  0.00    +0.000 C 
ATOM     15  C15 UNK H   1      33.193  10.408 201.598  0.00  0.00    +0.000 C 
ATOM     16  C16 UNK H   1      33.994  10.485 199.289  0.00  0.00    +0.000 C 
ATOM     17  C17 UNK H   1      34.110   9.970 200.515  0.00  0.00    +0.000 C 
ATOM     18  O22 UNK H   1      33.308   9.935 202.734  0.00  0.00    +0.000 OA
ENDROOT
BRANCH   6  19
ATOM     19  O18 UNK H   1      35.095  12.460 192.842  0.00  0.00    +0.000 OA
ATOM     20  H9  UNK H   1      34.370  12.276 192.104  0.00  0.00    +0.000 HD
ENDBRANCH   6  19
BRANCH   5  21
ATOM     21  O19 UNK H   1      32.802  14.040 193.461  0.00  0.00    +0.000 OA
ATOM     22  H10 UNK H   1      32.714  13.530 192.547  0.00  0.00    +0.000 HD
ENDBRANCH   5  21
BRANCH   7  23
ATOM     23  O20 UNK H   1      32.440  14.359 198.572  0.00  0.00    +0.000 OA
ATOM     24  H11 UNK H   1      32.710  14.313 199.586  0.00  0.00    +0.000 HD
ENDBRANCH   7  23
BRANCH  17  25
ATOM     25  O21 UNK H   1      35.090   9.021 200.778  0.00  0.00    +0.000 OA
ATOM     26  H12 UNK H   1      35.601   8.789 199.890  0.00  0.00    +0.000 HD
ENDBRANCH  17  25
TORSDOF 4
ENDMDL
MODEL 7
REMARK VINA RESULT:    -3.657      1.942      6.214
REMARK INTER + INTRA:          -4.512
REMARK INTER:                  -4.512
REMARK INTRA:                   0.000
REMARK UNBOUND:                 0.000
REMARK  Name = BCBL.pdb
REMARK  4 active torsions:
REMARK  status: ('A' for Active; 'I' for Inactive)
REMARK    1  A    between atoms: O1_1  and  C6_6
REMARK    2  A    between atoms: O3_3  and  C17_17
REMARK    3  A    between atoms: O4_4  and  C18_18
REMARK    4  A    between atoms: O5_5  and  C21_21
REMARK                            x       y       z     vdW  Elec       q    Type
REMARK                         _______ _______ _______ _____ _____    ______ ____
ROOT
ATOM      1  O2  UNK B   0      41.584  18.360 199.810  0.00  0.00    +0.000 OA
ATOM      2  C6  UNK B   0      41.090  17.738 197.491  0.00  0.00    +0.000 C 
ATOM      3  C7  UNK B   0      42.324  16.793 197.432  0.00  0.00    +0.000 C 
ATOM      4  C8  UNK B   0      39.851  16.871 197.824  0.00  0.00    +0.000 C 
ATOM      5  C9  UNK B   0      41.658  15.477 197.102  0.00  0.00    +0.000 A 
ATOM      6  C10 UNK B   0      40.278  15.528 197.323  0.00  0.00    +0.000 A 
ATOM      7  C11 UNK B   0      41.299  18.859 198.503  0.00  0.00    +0.000 C 
ATOM      8  C12 UNK B   0      43.099  16.784 198.730  0.00  0.00    +0.000 A 
ATOM      9  C13 UNK B   0      42.681  17.539 199.836  0.00  0.00    +0.000 A 
ATOM     10  C14 UNK B   0      42.249  14.318 196.617  0.00  0.00    +0.000 A 
ATOM     11  C15 UNK B   0      39.472  14.420 197.104  0.00  0.00    +0.000 A 
ATOM     12  C16 UNK B   0      44.269  16.017 198.855  0.00  0.00    +0.000 A 
ATOM     13  C17 UNK B   0      41.443  13.201 196.383  0.00  0.00    +0.000 A 
ATOM     14  C18 UNK B   0      40.065  13.251 196.629  0.00  0.00    +0.000 A 
ATOM     15  C19 UNK B   0      43.367  17.471 201.052  0.00  0.00    +0.000 A 
ATOM     16  C20 UNK B   0      44.967  15.966 200.063  0.00  0.00    +0.000 A 
ATOM     17  C21 UNK B   0      44.511  16.685 201.164  0.00  0.00    +0.000 A 
ENDROOT
BRANCH   2  18
ATOM     18  O1  UNK B   0      40.901  18.359 196.214  0.00  0.00    +0.000 OA
ATOM     19  H28 UNK B   0      40.230  19.056 196.312  0.00  0.00    +0.000 HD
ENDBRANCH   2  18
BRANCH  13  20
ATOM     20  O3  UNK B   0      42.016  12.057 195.911  0.00  0.00    +0.000 OA
ATOM     21  H33 UNK B   0      42.947  12.234 195.693  0.00  0.00    +0.000 HD
ENDBRANCH  13  20
BRANCH  14  22
ATOM     22  O4  UNK B   0      39.286  12.155 196.402  0.00  0.00    +0.000 OA
ATOM     23  H34 UNK B   0      39.749  11.559 195.789  0.00  0.00    +0.000 HD
ENDBRANCH  14  22
BRANCH  17  24
ATOM     24  O5  UNK B   0      45.187  16.628 202.344  0.00  0.00    +0.000 OA
ATOM     25  H35 UNK B   0      45.120  15.725 202.701  0.00  0.00    +0.000 HD
ENDBRANCH  17  24
TORSDOF 4
REMARK  Name = HEMCA.pdb
REMARK  4 active torsions:
REMARK  status: ('A' for Active; 'I' for Inactive)
REMARK    1  A    between atoms: C5_5  and  O19_19
REMARK    2  A    between atoms: C6_6  and  O18_18
REMARK    3  A    between atoms: C7_7  and  O20_20
REMARK    4  A    between atoms: C17_17  and  O21_21
REMARK                            x       y       z     vdW  Elec       q    Type
REMARK                         _______ _______ _______ _____ _____    ______ ____
ROOT
ATOM      1  C1  UNK H   1      40.484  12.658 200.245  0.00  0.00    +0.000 A 
ATOM      2  C2  UNK H   1      41.585  13.408 200.220  0.00  0.00    +0.000 A 
ATOM      3  C3  UNK H   1      40.551  11.240 199.842  0.00  0.00    +0.000 A 
ATOM      4  C4  UNK H   1      42.856  12.830 199.781  0.00  0.00    +0.000 A 
ATOM      5  C5  UNK H   1      41.707  10.724 199.431  0.00  0.00    +0.000 A 
ATOM      6  C6  UNK H   1      42.912  11.556 199.396  0.00  0.00    +0.000 A 
ATOM      7  C7  UNK H   1      37.985  12.313 200.404  0.00  0.00    +0.000 C 
ATOM      8  C8  UNK H   1      39.161  13.173 200.618  0.00  0.00    +0.000 C 
ATOM      9  C9  UNK H   1      38.262  10.828 200.637  0.00  0.00    +0.000 C 
ATOM     10  O10 UNK H   1      39.420  10.426 199.914  0.00  0.00    +0.000 OA
ATOM     11  C11 UNK H   1      36.830  12.976 201.221  0.00  0.00    +0.000 C 
ATOM     12  C12 UNK H   1      37.379  14.373 201.270  0.00  0.00    +0.000 C 
ATOM     13  C13 UNK H   1      38.778  14.384 201.021  0.00  0.00    +0.000 C 
ATOM     14  C14 UNK H   1      36.716  15.461 201.641  0.00  0.00    +0.000 C 
ATOM     15  C15 UNK H   1      37.474  16.717 201.762  0.00  0.00    +0.000 C 
ATOM     16  C16 UNK H   1      39.577  15.591 201.225  0.00  0.00    +0.000 C 
ATOM     17  C17 UNK H   1      38.946  16.715 201.573  0.00  0.00    +0.000 C 
ATOM     18  O22 UNK H   1      36.893  17.761 202.076  0.00  0.00    +0.000 OA
ENDROOT
BRANCH   6  19
ATOM     19  O18 UNK H   1      44.120  11.010 198.976  0.00  0.00    +0.000 OA
ATOM     20  H9  UNK H   1      44.184  11.066 197.929  0.00  0.00    +0.000 HD
ENDBRANCH   6  19
BRANCH   5  21
ATOM     21  O19 UNK H   1      41.776   9.387 199.058  0.00  0.00    +0.000 OA
ATOM     22  H10 UNK H   1      41.169   8.814 199.694  0.00  0.00    +0.000 HD
ENDBRANCH   5  21
BRANCH   7  23
ATOM     23  O20 UNK H   1      37.697  12.504 199.018  0.00  0.00    +0.000 OA
ATOM     24  H11 UNK H   1      37.394  13.497 198.856  0.00  0.00    +0.000 HD
ENDBRANCH   7  23
BRANCH  17  25
ATOM     25  O21 UNK H   1      39.671  17.886 201.760  0.00  0.00    +0.000 OA
ATOM     26  H12 UNK H   1      40.012  18.239 200.831  0.00  0.00    +0.000 HD
ENDBRANCH  17  25
TORSDOF 4
ENDMDL
MODEL 8
REMARK VINA RESULT:    -3.656      4.999      7.137
REMARK INTER + INTRA:          -4.511
REMARK INTER:                  -4.511
REMARK INTRA:                   0.000
REMARK UNBOUND:                 0.000
REMARK  Name = BCBL.pdb
REMARK  4 active torsions:
REMARK  status: ('A' for Active; 'I' for Inactive)
REMARK    1  A    between atoms: O1_1  and  C6_6
REMARK    2  A    between atoms: O3_3  and  C17_17
REMARK    3  A    between atoms: O4_4  and  C18_18
REMARK    4  A    between atoms: O5_5  and  C21_21
REMARK                            x       y       z     vdW  Elec       q    Type
REMARK                         _______ _______ _______ _____ _____    ______ ____
ROOT
ATOM      1  O2  UNK B   0      42.414  16.020 190.008  0.00  0.00    +0.000 OA
ATOM      2  C6  UNK B   0      40.982  17.303 191.528  0.00  0.00    +0.000 C 
ATOM      3  C7  UNK B   0      40.035  16.086 191.739  0.00  0.00    +0.000 C 
ATOM      4  C8  UNK B   0      41.986  17.324 192.707  0.00  0.00    +0.000 C 
ATOM      5  C9  UNK B   0      40.130  15.909 193.237  0.00  0.00    +0.000 A 
ATOM      6  C10 UNK B   0      41.221  16.602 193.770  0.00  0.00    +0.000 A 
ATOM      7  C11 UNK B   0      41.680  17.233 190.175  0.00  0.00    +0.000 C 
ATOM      8  C12 UNK B   0      40.474  14.877 190.945  0.00  0.00    +0.000 A 
ATOM      9  C13 UNK B   0      41.632  14.903 190.154  0.00  0.00    +0.000 A 
ATOM     10  C14 UNK B   0      39.283  15.189 194.067  0.00  0.00    +0.000 A 
ATOM     11  C15 UNK B   0      41.508  16.560 195.126  0.00  0.00    +0.000 A 
ATOM     12  C16 UNK B   0      39.721  13.692 190.979  0.00  0.00    +0.000 A 
ATOM     13  C17 UNK B   0      39.558  15.149 195.437  0.00  0.00    +0.000 A 
ATOM     14  C18 UNK B   0      40.666  15.827 195.962  0.00  0.00    +0.000 A 
ATOM     15  C19 UNK B   0      42.065  13.759 189.477  0.00  0.00    +0.000 A 
ATOM     16  C20 UNK B   0      40.142  12.555 190.285  0.00  0.00    +0.000 A 
ATOM     17  C21 UNK B   0      41.319  12.586 189.543  0.00  0.00    +0.000 A 
ENDROOT
BRANCH   2  18
ATOM     18  O1  UNK B   0      40.215  18.513 191.540  0.00  0.00    +0.000 OA
ATOM     19  H28 UNK B   0      39.305  18.293 191.800  0.00  0.00    +0.000 HD
ENDBRANCH   2  18
BRANCH  13  20
ATOM     20  O3  UNK B   0      38.733  14.440 196.260  0.00  0.00    +0.000 OA
ATOM     21  H33 UNK B   0      39.190  14.277 197.102  0.00  0.00    +0.000 HD
ENDBRANCH  13  20
BRANCH  14  22
ATOM     22  O4  UNK B   0      40.931  15.781 197.298  0.00  0.00    +0.000 OA
ATOM     23  H34 UNK B   0      41.616  16.438 197.508  0.00  0.00    +0.000 HD
ENDBRANCH  14  22
BRANCH  17  24
ATOM     24  O5  UNK B   0      41.734  11.475 188.875  0.00  0.00    +0.000 OA
ATOM     25  H35 UNK B   0      41.618  10.700 189.452  0.00  0.00    +0.000 HD
ENDBRANCH  17  24
TORSDOF 4
REMARK  Name = HEMCA.pdb
REMARK  4 active torsions:
REMARK  status: ('A' for Active; 'I' for Inactive)
REMARK    1  A    between atoms: C5_5  and  O19_19
REMARK    2  A    between atoms: C6_6  and  O18_18
REMARK    3  A    between atoms: C7_7  and  O20_20
REMARK    4  A    between atoms: C17_17  and  O21_21
REMARK                            x       y       z     vdW  Elec       q    Type
REMARK                         _______ _______ _______ _____ _____    ______ ____
ROOT
ATOM      1  C1  UNK H   1      43.007  13.133 195.032  0.00  0.00    +0.000 A 
ATOM      2  C2  UNK H   1      42.313  12.942 193.911  0.00  0.00    +0.000 A 
ATOM      3  C3  UNK H   1      42.548  12.519 196.294  0.00  0.00    +0.000 A 
ATOM      4  C4  UNK H   1      41.090  12.138 193.933  0.00  0.00    +0.000 A 
ATOM      5  C5  UNK H   1      41.429  11.800 196.310  0.00  0.00    +0.000 A 
ATOM      6  C6  UNK H   1      40.665  11.603 195.077  0.00  0.00    +0.000 A 
ATOM      7  C7  UNK H   1      44.769  14.280 196.434  0.00  0.00    +0.000 C 
ATOM      8  C8  UNK H   1      44.210  13.969 195.108  0.00  0.00    +0.000 C 
ATOM      9  C9  UNK H   1      44.635  13.136 197.439  0.00  0.00    +0.000 C 
ATOM     10  O10 UNK H   1      43.292  12.663 197.465  0.00  0.00    +0.000 OA
ATOM     11  C11 UNK H   1      46.200  14.846 196.161  0.00  0.00    +0.000 C 
ATOM     12  C12 UNK H   1      45.982  15.300 194.746  0.00  0.00    +0.000 C 
ATOM     13  C13 UNK H   1      44.863  14.647 194.163  0.00  0.00    +0.000 C 
ATOM     14  C14 UNK H   1      46.789  16.086 194.044  0.00  0.00    +0.000 C 
ATOM     15  C15 UNK H   1      46.474  16.297 192.623  0.00  0.00    +0.000 C 
ATOM     16  C16 UNK H   1      44.577  14.757 192.734  0.00  0.00    +0.000 C 
ATOM     17  C17 UNK H   1      45.348  15.559 191.996  0.00  0.00    +0.000 C 
ATOM     18  O22 UNK H   1      47.180  17.044 191.937  0.00  0.00    +0.000 OA
ENDROOT
BRANCH   6  19
ATOM     19  O18 UNK H   1      39.501  10.841 195.096  0.00  0.00    +0.000 OA
ATOM     20  H9  UNK H   1      39.056  10.905 196.046  0.00  0.00    +0.000 HD
ENDBRANCH   6  19
BRANCH   5  21
ATOM     21  O19 UNK H   1      40.998  11.215 197.495  0.00  0.00    +0.000 OA
ATOM     22  H10 UNK H   1      41.798  10.705 197.946  0.00  0.00    +0.000 HD
ENDBRANCH   5  21
BRANCH   7  23
ATOM     23  O20 UNK H   1      43.955  15.367 196.879  0.00  0.00    +0.000 OA
ATOM     24  H11 UNK H   1      42.967  15.035 197.006  0.00  0.00    +0.000 HD
ENDBRANCH   7  23
BRANCH  17  25
ATOM     25  O21 UNK H   1      45.096  15.702 190.636  0.00  0.00    +0.000 OA
ATOM     26  H12 UNK H   1      45.512  14.890 190.116  0.00  0.00    +0.000 HD
ENDBRANCH  17  25
TORSDOF 4
ENDMDL
MODEL 9
REMARK VINA RESULT:    -3.656      5.494      9.348
REMARK INTER + INTRA:          -4.511
REMARK INTER:                  -4.511
REMARK INTRA:                   0.000
REMARK UNBOUND:                 0.000
REMARK  Name = BCBL.pdb
REMARK  4 active torsions:
REMARK  status: ('A' for Active; 'I' for Inactive)
REMARK    1  A    between atoms: O1_1  and  C6_6
REMARK    2  A    between atoms: O3_3  and  C17_17
REMARK    3  A    between atoms: O4_4  and  C18_18
REMARK    4  A    between atoms: O5_5  and  C21_21
REMARK                            x       y       z     vdW  Elec       q    Type
REMARK                         _______ _______ _______ _____ _____    ______ ____
ROOT
ATOM      1  O2  UNK B   0      34.248  11.786 201.451  0.00  0.00    +0.000 OA
ATOM      2  C6  UNK B   0      32.332  11.356 199.985  0.00  0.00    +0.000 C 
ATOM      3  C7  UNK B   0      32.474  12.751 199.312  0.00  0.00    +0.000 C 
ATOM      4  C8  UNK B   0      33.054  10.325 199.084  0.00  0.00    +0.000 C 
ATOM      5  C9  UNK B   0      32.670  12.350 197.867  0.00  0.00    +0.000 A 
ATOM      6  C10 UNK B   0      32.994  10.995 197.748  0.00  0.00    +0.000 A 
ATOM      7  C11 UNK B   0      32.884  11.368 201.405  0.00  0.00    +0.000 C 
ATOM      8  C12 UNK B   0      33.618  13.551 199.891  0.00  0.00    +0.000 A 
ATOM      9  C13 UNK B   0      34.442  13.025 200.897  0.00  0.00    +0.000 A 
ATOM     10  C14 UNK B   0      32.547  13.144 196.736  0.00  0.00    +0.000 A 
ATOM     11  C15 UNK B   0      33.237  10.419 196.510  0.00  0.00    +0.000 A 
ATOM     12  C16 UNK B   0      33.878  14.853 199.434  0.00  0.00    +0.000 A 
ATOM     13  C17 UNK B   0      32.779  12.570 195.484  0.00  0.00    +0.000 A 
ATOM     14  C18 UNK B   0      33.127  11.218 195.372  0.00  0.00    +0.000 A 
ATOM     15  C19 UNK B   0      35.538  13.747 201.378  0.00  0.00    +0.000 A 
ATOM     16  C20 UNK B   0      34.960  15.584 199.930  0.00  0.00    +0.000 A 
ATOM     17  C21 UNK B   0      35.795  15.027 200.895  0.00  0.00    +0.000 A 
ENDROOT
BRANCH   2  18
ATOM     18  O1  UNK B   0      30.946  11.009 200.080  0.00  0.00    +0.000 OA
ATOM     19  H28 UNK B   0      30.431  11.678 199.598  0.00  0.00    +0.000 HD
ENDBRANCH   2  18
BRANCH  13  20
ATOM     20  O3  UNK B   0      32.665  13.345 194.367  0.00  0.00    +0.000 OA
ATOM     21  H33 UNK B   0      31.746  13.311 194.050  0.00  0.00    +0.000 HD
ENDBRANCH  13  20
BRANCH  14  22
ATOM     22  O4  UNK B   0      33.357  10.665 194.147  0.00  0.00    +0.000 OA
ATOM     23  H34 UNK B   0      33.946   9.899 194.251  0.00  0.00    +0.000 HD
ENDBRANCH  14  22
BRANCH  17  24
ATOM     24  O5  UNK B   0      36.855  15.736 201.371  0.00  0.00    +0.000 OA
ATOM     25  H35 UNK B   0      37.289  16.191 200.628  0.00  0.00    +0.000 HD
ENDBRANCH  17  24
TORSDOF 4
REMARK  Name = HEMCA.pdb
REMARK  4 active torsions:
REMARK  status: ('A' for Active; 'I' for Inactive)
REMARK    1  A    between atoms: C5_5  and  O19_19
REMARK    2  A    between atoms: C6_6  and  O18_18
REMARK    3  A    between atoms: C7_7  and  O20_20
REMARK    4  A    between atoms: C17_17  and  O21_21
REMARK                            x       y       z     vdW  Elec       q    Type
REMARK                         _______ _______ _______ _____ _____    ______ ____
ROOT
ATOM      1  C1  UNK H   1      36.674  11.859 196.155  0.00  0.00    +0.000 A 
ATOM      2  C2  UNK H   1      36.293  12.788 197.031  0.00  0.00    +0.000 A 
ATOM      3  C3  UNK H   1      36.763  12.194 194.720  0.00  0.00    +0.000 A 
ATOM      4  C4  UNK H   1      35.949  14.134 196.570  0.00  0.00    +0.000 A 
ATOM      5  C5  UNK H   1      36.437  13.416 194.306  0.00  0.00    +0.000 A 
ATOM      6  C6  UNK H   1      36.009  14.430 195.272  0.00  0.00    +0.000 A 
ATOM      7  C7  UNK H   1      37.182   9.485 195.453  0.00  0.00    +0.000 C 
ATOM      8  C8  UNK H   1      36.980  10.473 196.526  0.00  0.00    +0.000 C 
ATOM      9  C9  UNK H   1      37.869  10.058 194.215  0.00  0.00    +0.000 C 
ATOM     10  O10 UNK H   1      37.212  11.250 193.797  0.00  0.00    +0.000 OA
ATOM     11  C11 UNK H   1      37.838   8.247 196.145  0.00  0.00    +0.000 C 
ATOM     12  C12 UNK H   1      37.364   8.509 197.546  0.00  0.00    +0.000 C 
ATOM     13  C13 UNK H   1      36.990   9.870 197.715  0.00  0.00    +0.000 C 
ATOM     14  C14 UNK H   1      37.413   7.655 198.560  0.00  0.00    +0.000 C 
ATOM     15  C15 UNK H   1      37.034   8.152 199.892  0.00  0.00    +0.000 C 
ATOM     16  C16 UNK H   1      36.701  10.419 199.038  0.00  0.00    +0.000 C 
ATOM     17  C17 UNK H   1      36.713   9.590 200.084  0.00  0.00    +0.000 C 
ATOM     18  O22 UNK H   1      37.036   7.386 200.862  0.00  0.00    +0.000 OA
ENDROOT
BRANCH   6  19
ATOM     19  O18 UNK H   1      35.680  15.708 194.836  0.00  0.00    +0.000 OA
ATOM     20  H9  UNK H   1      35.479  16.321 195.665  0.00  0.00    +0.000 HD
ENDBRANCH   6  19
BRANCH   5  21
ATOM     21  O19 UNK H   1      36.527  13.737 192.957  0.00  0.00    +0.000 OA
ATOM     22  H10 UNK H   1      35.570  13.953 192.583  0.00  0.00    +0.000 HD
ENDBRANCH   5  21
BRANCH   7  23
ATOM     23  O20 UNK H   1      35.846   9.121 195.098  0.00  0.00    +0.000 OA
ATOM     24  H11 UNK H   1      35.187   9.423 195.858  0.00  0.00    +0.000 HD
ENDBRANCH   7  23
BRANCH  17  25
ATOM     25  O21 UNK H   1      36.427  10.073 201.355  0.00  0.00    +0.000 OA
ATOM     26  H12 UNK H   1      35.931   9.331 201.908  0.00  0.00    +0.000 HD
ENDBRANCH  17  25
TORSDOF 4
ENDMDL
