MODEL 1
REMARK VINA RESULT:     0.000      0.000      0.000
REMARK INTER + INTRA:           0.000
REMARK INTER:                   0.000
REMARK INTRA:                   0.000
REMARK UNBOUND:                 0.000
REMARK  Name = HEMCA.pdb
REMARK  4 active torsions:
REMARK  status: ('A' for Active; 'I' for Inactive)
REMARK    1  A    between atoms: C5_5  and  O19_19
REMARK    2  A    between atoms: C6_6  and  O18_18
REMARK    3  A    between atoms: C7_7  and  O20_20
REMARK    4  A    between atoms: C17_17  and  O21_21
REMARK                            x       y       z     vdW  Elec       q    Type
REMARK                         _______ _______ _______ _____ _____    ______ ____
ROOT
ATOM      1  C1  UNK H   1      33.922  11.399 201.971  0.00  0.00    +0.000 A 
ATOM      2  C2  UNK H   1      32.911  12.202 202.301  0.00  0.00    +0.000 A 
ATOM      3  C3  UNK H   1      34.126  10.135 202.705  0.00  0.00    +0.000 A 
ATOM      4  C4  UNK H   1      32.013  11.837 203.398  0.00  0.00    +0.000 A 
ATOM      5  C5  UNK H   1      33.314   9.816 203.710  0.00  0.00    +0.000 A 
ATOM      6  C6  UNK H   1      32.211  10.707 204.074  0.00  0.00    +0.000 A 
ATOM      7  C7  UNK H   1      36.092  10.862 200.792  0.00  0.00    +0.000 C 
ATOM      8  C8  UNK H   1      34.899  11.716 200.924  0.00  0.00    +0.000 C 
ATOM      9  C9  UNK H   1      35.825   9.388 201.093  0.00  0.00    +0.000 C 
ATOM     10  O10 UNK H   1      35.146   9.257 202.338  0.00  0.00    +0.000 OA
ATOM     11  C11 UNK H   1      36.711  11.222 199.403  0.00  0.00    +0.000 C 
ATOM     12  C12 UNK H   1      36.120  12.595 199.256  0.00  0.00    +0.000 C 
ATOM     13  C13 UNK H   1      34.988  12.760 200.099  0.00  0.00    +0.000 C 
ATOM     14  C14 UNK H   1      36.479  13.509 198.363  0.00  0.00    +0.000 C 
ATOM     15  C15 UNK H   1      35.678  14.741 198.285  0.00  0.00    +0.000 C 
ATOM     16  C16 UNK H   1      34.115  13.926 199.981  0.00  0.00    +0.000 C 
ATOM     17  C17 UNK H   1      34.454  14.884 199.114  0.00  0.00    +0.000 C 
ATOM     18  O22 UNK H   1      35.992  15.633 197.490  0.00  0.00    +0.000 OA
ENDROOT
BRANCH   6  19
ATOM     19  O18 UNK H   1      31.358  10.365 205.118  0.00  0.00    +0.000 OA
ATOM     20  H9  UNK H   1      30.555  11.041 205.151  0.00  0.00    +0.000 HD
ENDBRANCH   6  19
BRANCH   5  21
ATOM     21  O19 UNK H   1      33.499   8.623 204.398  0.00  0.00    +0.000 OA
ATOM     22  H10 UNK H   1      34.325   8.712 205.040  0.00  0.00    +0.000 HD
ENDBRANCH   5  21
BRANCH   7  23
ATOM     23  O20 UNK H   1      36.966  11.375 201.798  0.00  0.00    +0.000 OA
ATOM     24  H11 UNK H   1      36.744  12.386 201.974  0.00  0.00    +0.000 HD
ENDBRANCH   7  23
BRANCH  17  25
ATOM     25  O21 UNK H   1      33.657  16.015 198.986  0.00  0.00    +0.000 OA
ATOM     26  H12 UNK H   1      33.133  16.178 199.882  0.00  0.00    +0.000 HD
ENDBRANCH  17  25
TORSDOF 4
ENDMDL
MODEL 2
REMARK VINA RESULT:     0.000      2.514      3.192
REMARK INTER + INTRA:           0.000
REMARK INTER:                   0.000
REMARK INTRA:                   0.000
REMARK UNBOUND:                 0.000
REMARK  Name = HEMCA.pdb
REMARK  4 active torsions:
REMARK  status: ('A' for Active; 'I' for Inactive)
REMARK    1  A    between atoms: C5_5  and  O19_19
REMARK    2  A    between atoms: C6_6  and  O18_18
REMARK    3  A    between atoms: C7_7  and  O20_20
REMARK    4  A    between atoms: C17_17  and  O21_21
REMARK                            x       y       z     vdW  Elec       q    Type
REMARK                         _______ _______ _______ _____ _____    ______ ____
ROOT
ATOM      1  C1  UNK H   1      33.809  12.672 200.086  0.00  0.00    +0.000 A 
ATOM      2  C2  UNK H   1      32.483  12.735 200.205  0.00  0.00    +0.000 A 
ATOM      3  C3  UNK H   1      34.640  12.378 201.270  0.00  0.00    +0.000 A 
ATOM      4  C4  UNK H   1      31.854  12.527 201.510  0.00  0.00    +0.000 A 
ATOM      5  C5  UNK H   1      34.062  12.203 202.456  0.00  0.00    +0.000 A 
ATOM      6  C6  UNK H   1      32.606  12.283 202.582  0.00  0.00    +0.000 A 
ATOM      7  C7  UNK H   1      35.990  13.038 198.862  0.00  0.00    +0.000 C 
ATOM      8  C8  UNK H   1      34.522  12.924 198.829  0.00  0.00    +0.000 C 
ATOM      9  C9  UNK H   1      36.653  12.113 199.882  0.00  0.00    +0.000 C 
ATOM     10  O10 UNK H   1      36.025  12.255 201.152  0.00  0.00    +0.000 OA
ATOM     11  C11 UNK H   1      36.451  12.930 197.373  0.00  0.00    +0.000 C 
ATOM     12  C12 UNK H   1      35.167  13.358 196.721  0.00  0.00    +0.000 C 
ATOM     13  C13 UNK H   1      34.067  13.210 197.609  0.00  0.00    +0.000 C 
ATOM     14  C14 UNK H   1      35.010  13.690 195.446  0.00  0.00    +0.000 C 
ATOM     15  C15 UNK H   1      33.642  13.939 194.967  0.00  0.00    +0.000 C 
ATOM     16  C16 UNK H   1      32.689  13.356 197.142  0.00  0.00    +0.000 C 
ATOM     17  C17 UNK H   1      32.486  13.716 195.873  0.00  0.00    +0.000 C 
ATOM     18  O22 UNK H   1      33.450  14.280 193.795  0.00  0.00    +0.000 OA
ENDROOT
BRANCH   6  19
ATOM     19  O18 UNK H   1      32.006  12.088 203.821  0.00  0.00    +0.000 OA
ATOM     20  H9  UNK H   1      30.963  12.046 203.702  0.00  0.00    +0.000 HD
ENDBRANCH   6  19
BRANCH   5  21
ATOM     21  O19 UNK H   1      34.842  11.918 203.571  0.00  0.00    +0.000 OA
ATOM     22  H10 UNK H   1      35.328  12.791 203.892  0.00  0.00    +0.000 HD
ENDBRANCH   5  21
BRANCH   7  23
ATOM     23  O20 UNK H   1      36.197  14.389 199.279  0.00  0.00    +0.000 OA
ATOM     24  H11 UNK H   1      35.998  14.473 200.307  0.00  0.00    +0.000 HD
ENDBRANCH   7  23
BRANCH  17  25
ATOM     25  O21 UNK H   1      31.191  13.880 195.398  0.00  0.00    +0.000 OA
ATOM     26  H12 UNK H   1      30.553  14.122 196.197  0.00  0.00    +0.000 HD
ENDBRANCH  17  25
TORSDOF 4
ENDMDL
MODEL 3
REMARK VINA RESULT:     0.000      2.744      3.876
REMARK INTER + INTRA:           0.000
REMARK INTER:                   0.000
REMARK INTRA:                   0.000
REMARK UNBOUND:                 0.000
REMARK  Name = HEMCA.pdb
REMARK  4 active torsions:
REMARK  status: ('A' for Active; 'I' for Inactive)
REMARK    1  A    between atoms: C5_5  and  O19_19
REMARK    2  A    between atoms: C6_6  and  O18_18
REMARK    3  A    between atoms: C7_7  and  O20_20
REMARK    4  A    between atoms: C17_17  and  O21_21
REMARK                            x       y       z     vdW  Elec       q    Type
REMARK                         _______ _______ _______ _____ _____    ______ ____
ROOT
ATOM      1  C1  UNK H   1      36.323  10.915 200.104  0.00  0.00    +0.000 A 
ATOM      2  C2  UNK H   1      35.049  10.587 200.317  0.00  0.00    +0.000 A 
ATOM      3  C3  UNK H   1      37.280  10.913 201.228  0.00  0.00    +0.000 A 
ATOM      4  C4  UNK H   1      34.597  10.239 201.665  0.00  0.00    +0.000 A 
ATOM      5  C5  UNK H   1      36.859  10.608 202.454  0.00  0.00    +0.000 A 
ATOM      6  C6  UNK H   1      35.456  10.258 202.683  0.00  0.00    +0.000 A 
ATOM      7  C7  UNK H   1      38.212  11.873 198.726  0.00  0.00    +0.000 C 
ATOM      8  C8  UNK H   1      36.845  11.330 198.798  0.00  0.00    +0.000 C 
ATOM      9  C9  UNK H   1      39.185  11.215 199.704  0.00  0.00    +0.000 C 
ATOM     10  O10 UNK H   1      38.628  11.201 201.014  0.00  0.00    +0.000 OA
ATOM     11  C11 UNK H   1      38.585  11.864 197.209  0.00  0.00    +0.000 C 
ATOM     12  C12 UNK H   1      37.192  11.875 196.647  0.00  0.00    +0.000 C 
ATOM     13  C13 UNK H   1      36.246  11.435 197.612  0.00  0.00    +0.000 C 
ATOM     14  C14 UNK H   1      36.861  12.110 195.384  0.00  0.00    +0.000 C 
ATOM     15  C15 UNK H   1      35.451  11.930 195.001  0.00  0.00    +0.000 C 
ATOM     16  C16 UNK H   1      34.860  11.154 197.243  0.00  0.00    +0.000 C 
ATOM     17  C17 UNK H   1      34.477  11.401 195.988  0.00  0.00    +0.000 C 
ATOM     18  O22 UNK H   1      35.090  12.166 193.843  0.00  0.00    +0.000 OA
ENDROOT
BRANCH   6  19
ATOM     19  O18 UNK H   1      35.023   9.930 203.963  0.00  0.00    +0.000 OA
ATOM     20  H9  UNK H   1      33.994   9.718 203.941  0.00  0.00    +0.000 HD
ENDBRANCH   6  19
BRANCH   5  21
ATOM     21  O19 UNK H   1      37.759  10.598 203.513  0.00  0.00    +0.000 OA
ATOM     22  H10 UNK H   1      37.984  11.585 203.792  0.00  0.00    +0.000 HD
ENDBRANCH   5  21
BRANCH   7  23
ATOM     23  O20 UNK H   1      38.036  13.236 199.117  0.00  0.00    +0.000 OA
ATOM     24  H11 UNK H   1      38.974  13.700 199.203  0.00  0.00    +0.000 HD
ENDBRANCH   7  23
BRANCH  17  25
ATOM     25  O21 UNK H   1      33.162  11.162 195.606  0.00  0.00    +0.000 OA
ATOM     26  H12 UNK H   1      32.672  10.617 196.358  0.00  0.00    +0.000 HD
ENDBRANCH  17  25
TORSDOF 4
ENDMDL
MODEL 4
REMARK VINA RESULT:     0.000      2.519      3.123
REMARK INTER + INTRA:           0.000
REMARK INTER:                   0.000
REMARK INTRA:                   0.000
REMARK UNBOUND:                 0.000
REMARK  Name = HEMCA.pdb
REMARK  4 active torsions:
REMARK  status: ('A' for Active; 'I' for Inactive)
REMARK    1  A    between atoms: C5_5  and  O19_19
REMARK    2  A    between atoms: C6_6  and  O18_18
REMARK    3  A    between atoms: C7_7  and  O20_20
REMARK    4  A    between atoms: C17_17  and  O21_21
REMARK                            x       y       z     vdW  Elec       q    Type
REMARK                         _______ _______ _______ _____ _____    ______ ____
ROOT
ATOM      1  C1  UNK H   1      35.012  10.956 201.606  0.00  0.00    +0.000 A 
ATOM      2  C2  UNK H   1      34.038  10.048 201.551  0.00  0.00    +0.000 A 
ATOM      3  C3  UNK H   1      35.523  11.407 202.916  0.00  0.00    +0.000 A 
ATOM      4  C4  UNK H   1      33.467   9.509 202.787  0.00  0.00    +0.000 A 
ATOM      5  C5  UNK H   1      34.990  10.922 204.035  0.00  0.00    +0.000 A 
ATOM      6  C6  UNK H   1      33.914   9.932 203.968  0.00  0.00    +0.000 A 
ATOM      7  C7  UNK H   1      36.513  12.727 200.607  0.00  0.00    +0.000 C 
ATOM      8  C8  UNK H   1      35.600  11.587 200.420  0.00  0.00    +0.000 C 
ATOM      9  C9  UNK H   1      37.385  12.613 201.857  0.00  0.00    +0.000 C 
ATOM     10  O10 UNK H   1      36.579  12.316 202.992  0.00  0.00    +0.000 OA
ATOM     11  C11 UNK H   1      37.231  12.916 199.232  0.00  0.00    +0.000 C 
ATOM     12  C12 UNK H   1      36.200  12.256 198.362  0.00  0.00    +0.000 C 
ATOM     13  C13 UNK H   1      35.358  11.400 199.122  0.00  0.00    +0.000 C 
ATOM     14  C14 UNK H   1      36.143  12.314 197.037  0.00  0.00    +0.000 C 
ATOM     15  C15 UNK H   1      35.141  11.476 196.358  0.00  0.00    +0.000 C 
ATOM     16  C16 UNK H   1      34.420  10.485 198.474  0.00  0.00    +0.000 C 
ATOM     17  C17 UNK H   1      34.311  10.529 197.144  0.00  0.00    +0.000 C 
ATOM     18  O22 UNK H   1      35.031  11.519 195.128  0.00  0.00    +0.000 OA
ENDROOT
BRANCH   6  19
ATOM     19  O18 UNK H   1      33.367   9.421 205.140  0.00  0.00    +0.000 OA
ATOM     20  H9  UNK H   1      34.128   9.288 205.852  0.00  0.00    +0.000 HD
ENDBRANCH   6  19
BRANCH   5  21
ATOM     21  O19 UNK H   1      35.474  11.339 205.270  0.00  0.00    +0.000 OA
ATOM     22  H10 UNK H   1      35.590  12.383 205.267  0.00  0.00    +0.000 HD
ENDBRANCH   5  21
BRANCH   7  23
ATOM     23  O20 UNK H   1      35.620  13.828 200.782  0.00  0.00    +0.000 OA
ATOM     24  H11 UNK H   1      36.151  14.729 200.686  0.00  0.00    +0.000 HD
ENDBRANCH   7  23
BRANCH  17  25
ATOM     25  O21 UNK H   1      33.417   9.686 196.495  0.00  0.00    +0.000 OA
ATOM     26  H12 UNK H   1      32.808   9.207 197.204  0.00  0.00    +0.000 HD
ENDBRANCH  17  25
TORSDOF 4
ENDMDL
MODEL 5
REMARK VINA RESULT:     0.000      5.786      8.933
REMARK INTER + INTRA:           0.000
REMARK INTER:                   0.000
REMARK INTRA:                   0.000
REMARK UNBOUND:                 0.000
REMARK  Name = HEMCA.pdb
REMARK  4 active torsions:
REMARK  status: ('A' for Active; 'I' for Inactive)
REMARK    1  A    between atoms: C5_5  and  O19_19
REMARK    2  A    between atoms: C6_6  and  O18_18
REMARK    3  A    between atoms: C7_7  and  O20_20
REMARK    4  A    between atoms: C17_17  and  O21_21
REMARK                            x       y       z     vdW  Elec       q    Type
REMARK                         _______ _______ _______ _____ _____    ______ ____
ROOT
ATOM      1  C1  UNK H   1      39.654  16.422 199.711  0.00  0.00    +0.000 A 
ATOM      2  C2  UNK H   1      39.301  15.147 199.871  0.00  0.00    +0.000 A 
ATOM      3  C3  UNK H   1      40.674  16.782 198.706  0.00  0.00    +0.000 A 
ATOM      4  C4  UNK H   1      39.933  14.104 199.062  0.00  0.00    +0.000 A 
ATOM      5  C5  UNK H   1      41.254  15.827 197.983  0.00  0.00    +0.000 A 
ATOM      6  C6  UNK H   1      40.869  14.427 198.171  0.00  0.00    +0.000 A 
ATOM      7  C7  UNK H   1      39.728  18.852 200.401  0.00  0.00    +0.000 C 
ATOM      8  C8  UNK H   1      39.111  17.520 200.518  0.00  0.00    +0.000 C 
ATOM      9  C9  UNK H   1      40.213  19.180 198.989  0.00  0.00    +0.000 C 
ATOM     10  O10 UNK H   1      41.016  18.117 198.488  0.00  0.00    +0.000 OA
ATOM     11  C11 UNK H   1      38.720  19.839 201.073  0.00  0.00    +0.000 C 
ATOM     12  C12 UNK H   1      38.010  18.851 201.953  0.00  0.00    +0.000 C 
ATOM     13  C13 UNK H   1      38.195  17.521 201.487  0.00  0.00    +0.000 C 
ATOM     14  C14 UNK H   1      37.186  19.144 202.951  0.00  0.00    +0.000 C 
ATOM     15  C15 UNK H   1      36.474  18.032 203.601  0.00  0.00    +0.000 C 
ATOM     16  C16 UNK H   1      37.432  16.407 202.045  0.00  0.00    +0.000 C 
ATOM     17  C17 UNK H   1      36.611  16.653 203.068  0.00  0.00    +0.000 C 
ATOM     18  O22 UNK H   1      35.719  18.254 204.553  0.00  0.00    +0.000 OA
ENDROOT
BRANCH   6  19
ATOM     19  O18 UNK H   1      41.471  13.434 197.405  0.00  0.00    +0.000 OA
ATOM     20  H9  UNK H   1      41.230  13.577 196.393  0.00  0.00    +0.000 HD
ENDBRANCH   6  19
BRANCH   5  21
ATOM     21  O19 UNK H   1      42.209  16.163 197.031  0.00  0.00    +0.000 OA
ATOM     22  H10 UNK H   1      43.150  16.241 197.490  0.00  0.00    +0.000 HD
ENDBRANCH   5  21
BRANCH   7  23
ATOM     23  O20 UNK H   1      40.868  18.754 201.256  0.00  0.00    +0.000 OA
ATOM     24  H11 UNK H   1      40.720  19.349 202.108  0.00  0.00    +0.000 HD
ENDBRANCH   7  23
BRANCH  17  25
ATOM     25  O21 UNK H   1      35.881  15.615 203.636  0.00  0.00    +0.000 OA
ATOM     26  H12 UNK H   1      34.855  15.815 203.542  0.00  0.00    +0.000 HD
ENDBRANCH  17  25
TORSDOF 4
ENDMDL
MODEL 6
REMARK VINA RESULT:     0.000      8.633     11.786
REMARK INTER + INTRA:           0.000
REMARK INTER:                   0.000
REMARK INTRA:                   0.000
REMARK UNBOUND:                 0.000
REMARK  Name = HEMCA.pdb
REMARK  4 active torsions:
REMARK  status: ('A' for Active; 'I' for Inactive)
REMARK    1  A    between atoms: C5_5  and  O19_19
REMARK    2  A    between atoms: C6_6  and  O18_18
REMARK    3  A    between atoms: C7_7  and  O20_20
REMARK    4  A    between atoms: C17_17  and  O21_21
REMARK                            x       y       z     vdW  Elec       q    Type
REMARK                         _______ _______ _______ _____ _____    ______ ____
ROOT
ATOM      1  C1  UNK H   1      42.474  18.382 198.888  0.00  0.00    +0.000 A 
ATOM      2  C2  UNK H   1      42.122  17.106 199.048  0.00  0.00    +0.000 A 
ATOM      3  C3  UNK H   1      43.494  18.741 197.884  0.00  0.00    +0.000 A 
ATOM      4  C4  UNK H   1      42.754  16.063 198.239  0.00  0.00    +0.000 A 
ATOM      5  C5  UNK H   1      44.075  17.786 197.160  0.00  0.00    +0.000 A 
ATOM      6  C6  UNK H   1      43.690  16.387 197.348  0.00  0.00    +0.000 A 
ATOM      7  C7  UNK H   1      42.548  20.812 199.578  0.00  0.00    +0.000 C 
ATOM      8  C8  UNK H   1      41.932  19.480 199.695  0.00  0.00    +0.000 C 
ATOM      9  C9  UNK H   1      43.033  21.140 198.166  0.00  0.00    +0.000 C 
ATOM     10  O10 UNK H   1      43.836  20.076 197.665  0.00  0.00    +0.000 OA
ATOM     11  C11 UNK H   1      41.541  21.799 200.250  0.00  0.00    +0.000 C 
ATOM     12  C12 UNK H   1      40.831  20.811 201.131  0.00  0.00    +0.000 C 
ATOM     13  C13 UNK H   1      41.016  19.481 200.664  0.00  0.00    +0.000 C 
ATOM     14  C14 UNK H   1      40.006  21.104 202.129  0.00  0.00    +0.000 C 
ATOM     15  C15 UNK H   1      39.294  19.992 202.778  0.00  0.00    +0.000 C 
ATOM     16  C16 UNK H   1      40.253  18.367 201.222  0.00  0.00    +0.000 C 
ATOM     17  C17 UNK H   1      39.431  18.612 202.246  0.00  0.00    +0.000 C 
ATOM     18  O22 UNK H   1      38.539  20.214 203.731  0.00  0.00    +0.000 OA
ENDROOT
BRANCH   6  19
ATOM     19  O18 UNK H   1      44.292  15.393 196.583  0.00  0.00    +0.000 OA
ATOM     20  H9  UNK H   1      44.617  15.802 195.671  0.00  0.00    +0.000 HD
ENDBRANCH   6  19
BRANCH   5  21
ATOM     21  O19 UNK H   1      45.030  18.123 196.208  0.00  0.00    +0.000 OA
ATOM     22  H10 UNK H   1      45.115  17.346 195.507  0.00  0.00    +0.000 HD
ENDBRANCH   5  21
BRANCH   7  23
ATOM     23  O20 UNK H   1      43.689  20.713 200.433  0.00  0.00    +0.000 OA
ATOM     24  H11 UNK H   1      43.637  19.822 200.986  0.00  0.00    +0.000 HD
ENDBRANCH   7  23
BRANCH  17  25
ATOM     25  O21 UNK H   1      38.702  17.574 202.813  0.00  0.00    +0.000 OA
ATOM     26  H12 UNK H   1      38.690  17.684 203.857  0.00  0.00    +0.000 HD
ENDBRANCH  17  25
TORSDOF 4
ENDMDL
MODEL 7
REMARK VINA RESULT:     0.000      9.656     12.210
REMARK INTER + INTRA:           0.000
REMARK INTER:                   0.000
REMARK INTRA:                   0.000
REMARK UNBOUND:                 0.000
REMARK  Name = HEMCA.pdb
REMARK  4 active torsions:
REMARK  status: ('A' for Active; 'I' for Inactive)
REMARK    1  A    between atoms: C5_5  and  O19_19
REMARK    2  A    between atoms: C6_6  and  O18_18
REMARK    3  A    between atoms: C7_7  and  O20_20
REMARK    4  A    between atoms: C17_17  and  O21_21
REMARK                            x       y       z     vdW  Elec       q    Type
REMARK                         _______ _______ _______ _____ _____    ______ ____
ROOT
ATOM      1  C1  UNK H   1      42.474  18.382 198.888  0.00  0.00    +0.000 A 
ATOM      2  C2  UNK H   1      42.291  17.062 198.890  0.00  0.00    +0.000 A 
ATOM      3  C3  UNK H   1      42.511  19.116 197.608  0.00  0.00    +0.000 A 
ATOM      4  C4  UNK H   1      42.139  16.340 197.626  0.00  0.00    +0.000 A 
ATOM      5  C5  UNK H   1      42.386  18.452 196.461  0.00  0.00    +0.000 A 
ATOM      6  C6  UNK H   1      42.194  17.001 196.470  0.00  0.00    +0.000 A 
ATOM      7  C7  UNK H   1      43.094  20.581 199.968  0.00  0.00    +0.000 C 
ATOM      8  C8  UNK H   1      42.690  19.172 200.105  0.00  0.00    +0.000 C 
ATOM      9  C9  UNK H   1      42.463  21.284 198.767  0.00  0.00    +0.000 C 
ATOM     10  O10 UNK H   1      42.647  20.504 197.590  0.00  0.00    +0.000 OA
ATOM     11  C11 UNK H   1      42.880  21.216 201.379  0.00  0.00    +0.000 C 
ATOM     12  C12 UNK H   1      42.956  19.956 202.193  0.00  0.00    +0.000 C 
ATOM     13  C13 UNK H   1      42.716  18.809 201.388  0.00  0.00    +0.000 C 
ATOM     14  C14 UNK H   1      43.077  19.883 203.513  0.00  0.00    +0.000 C 
ATOM     15  C15 UNK H   1      42.986  18.553 204.136  0.00  0.00    +0.000 C 
ATOM     16  C16 UNK H   1      42.524  17.489 201.984  0.00  0.00    +0.000 C 
ATOM     17  C17 UNK H   1      42.663  17.365 203.306  0.00  0.00    +0.000 C 
ATOM     18  O22 UNK H   1      43.122  18.434 205.359  0.00  0.00    +0.000 OA
ENDROOT
BRANCH   6  19
ATOM     19  O18 UNK H   1      42.053  16.312 195.270  0.00  0.00    +0.000 OA
ATOM     20  H9  UNK H   1      41.661  16.958 194.540  0.00  0.00    +0.000 HD
ENDBRANCH   6  19
BRANCH   5  21
ATOM     21  O19 UNK H   1      42.412  19.142 195.255  0.00  0.00    +0.000 OA
ATOM     22  H10 UNK H   1      43.407  19.298 194.961  0.00  0.00    +0.000 HD
ENDBRANCH   5  21
BRANCH   7  23
ATOM     23  O20 UNK H   1      44.503  20.491 199.746  0.00  0.00    +0.000 OA
ATOM     24  H11 UNK H   1      44.822  19.505 199.915  0.00  0.00    +0.000 HD
ENDBRANCH   7  23
BRANCH  17  25
ATOM     25  O21 UNK H   1      42.504  16.122 203.906  0.00  0.00    +0.000 OA
ATOM     26  H12 UNK H   1      43.430  15.791 204.276  0.00  0.00    +0.000 HD
ENDBRANCH  17  25
TORSDOF 4
ENDMDL
MODEL 8
REMARK VINA RESULT:     0.000     10.573     13.629
REMARK INTER + INTRA:           0.000
REMARK INTER:                   0.000
REMARK INTRA:                   0.000
REMARK UNBOUND:                 0.000
REMARK  Name = HEMCA.pdb
REMARK  4 active torsions:
REMARK  status: ('A' for Active; 'I' for Inactive)
REMARK    1  A    between atoms: C5_5  and  O19_19
REMARK    2  A    between atoms: C6_6  and  O18_18
REMARK    3  A    between atoms: C7_7  and  O20_20
REMARK    4  A    between atoms: C17_17  and  O21_21
REMARK                            x       y       z     vdW  Elec       q    Type
REMARK                         _______ _______ _______ _____ _____    ______ ____
ROOT
ATOM      1  C1  UNK H   1      44.005  18.832 198.930  0.00  0.00    +0.000 A 
ATOM      2  C2  UNK H   1      43.452  17.682 199.314  0.00  0.00    +0.000 A 
ATOM      3  C3  UNK H   1      43.939  19.242 197.513  0.00  0.00    +0.000 A 
ATOM      4  C4  UNK H   1      42.792  16.821 198.332  0.00  0.00    +0.000 A 
ATOM      5  C5  UNK H   1      43.349  18.448 196.622  0.00  0.00    +0.000 A 
ATOM      6  C6  UNK H   1      42.751  17.181 197.050  0.00  0.00    +0.000 A 
ATOM      7  C7  UNK H   1      45.483  20.855 199.264  0.00  0.00    +0.000 C 
ATOM      8  C8  UNK H   1      44.733  19.725 199.838  0.00  0.00    +0.000 C 
ATOM      9  C9  UNK H   1      44.810  21.479 198.043  0.00  0.00    +0.000 C 
ATOM     10  O10 UNK H   1      44.465  20.467 197.102  0.00  0.00    +0.000 OA
ATOM     11  C11 UNK H   1      45.816  21.790 200.471  0.00  0.00    +0.000 C 
ATOM     12  C12 UNK H   1      45.719  20.767 201.566  0.00  0.00    +0.000 C 
ATOM     13  C13 UNK H   1      44.966  19.636 201.148  0.00  0.00    +0.000 C 
ATOM     14  C14 UNK H   1      46.134  20.920 202.817  0.00  0.00    +0.000 C 
ATOM     15  C15 UNK H   1      45.815  19.852 203.779  0.00  0.00    +0.000 C 
ATOM     16  C16 UNK H   1      44.550  18.607 202.098  0.00  0.00    +0.000 C 
ATOM     17  C17 UNK H   1      44.968  18.707 203.362  0.00  0.00    +0.000 C 
ATOM     18  O22 UNK H   1      46.206  19.937 204.948  0.00  0.00    +0.000 OA
ENDROOT
BRANCH   6  19
ATOM     19  O18 UNK H   1      42.126  16.360 196.118  0.00  0.00    +0.000 OA
ATOM     20  H9  UNK H   1      42.038  16.871 195.204  0.00  0.00    +0.000 HD
ENDBRANCH   6  19
BRANCH   5  21
ATOM     21  O19 UNK H   1      43.278  18.834 195.289  0.00  0.00    +0.000 OA
ATOM     22  H10 UNK H   1      43.186  17.983 194.681  0.00  0.00    +0.000 HD
ENDBRANCH   5  21
BRANCH   7  23
ATOM     23  O20 UNK H   1      46.705  20.247 198.841  0.00  0.00    +0.000 OA
ATOM     24  H11 UNK H   1      46.619  19.945 197.839  0.00  0.00    +0.000 HD
ENDBRANCH   7  23
BRANCH  17  25
ATOM     25  O21 UNK H   1      44.606  17.737 204.289  0.00  0.00    +0.000 OA
ATOM     26  H12 UNK H   1      43.663  17.348 204.040  0.00  0.00    +0.000 HD
ENDBRANCH  17  25
TORSDOF 4
ENDMDL
MODEL 9
REMARK VINA RESULT:     0.000     10.520     13.465
REMARK INTER + INTRA:           0.000
REMARK INTER:                   0.000
REMARK INTRA:                   0.000
REMARK UNBOUND:                 0.000
REMARK  Name = HEMCA.pdb
REMARK  4 active torsions:
REMARK  status: ('A' for Active; 'I' for Inactive)
REMARK    1  A    between atoms: C5_5  and  O19_19
REMARK    2  A    between atoms: C6_6  and  O18_18
REMARK    3  A    between atoms: C7_7  and  O20_20
REMARK    4  A    between atoms: C17_17  and  O21_21
REMARK                            x       y       z     vdW  Elec       q    Type
REMARK                         _______ _______ _______ _____ _____    ______ ____
ROOT
ATOM      1  C1  UNK H   1      44.005  18.832 198.930  0.00  0.00    +0.000 A 
ATOM      2  C2  UNK H   1      43.184  17.819 198.657  0.00  0.00    +0.000 A 
ATOM      3  C3  UNK H   1      44.166  19.930 197.956  0.00  0.00    +0.000 A 
ATOM      4  C4  UNK H   1      42.454  17.787 197.389  0.00  0.00    +0.000 A 
ATOM      5  C5  UNK H   1      43.509  19.889 196.799  0.00  0.00    +0.000 A 
ATOM      6  C6  UNK H   1      42.616  18.767 196.501  0.00  0.00    +0.000 A 
ATOM      7  C7  UNK H   1      45.842  19.965 200.246  0.00  0.00    +0.000 C 
ATOM      8  C8  UNK H   1      44.816  18.913 200.150  0.00  0.00    +0.000 C 
ATOM      9  C9  UNK H   1      45.439  21.276 199.572  0.00  0.00    +0.000 C 
ATOM     10  O10 UNK H   1      44.979  21.025 198.248  0.00  0.00    +0.000 OA
ATOM     11  C11 UNK H   1      46.248  20.014 201.753  0.00  0.00    +0.000 C 
ATOM     12  C12 UNK H   1      45.829  18.623 202.133  0.00  0.00    +0.000 C 
ATOM     13  C13 UNK H   1      44.896  18.095 201.200  0.00  0.00    +0.000 C 
ATOM     14  C14 UNK H   1      46.143  17.991 203.257  0.00  0.00    +0.000 C 
ATOM     15  C15 UNK H   1      45.512  16.685 203.507  0.00  0.00    +0.000 C 
ATOM     16  C16 UNK H   1      44.179  16.849 201.464  0.00  0.00    +0.000 C 
ATOM     17  C17 UNK H   1      44.483  16.167 202.570  0.00  0.00    +0.000 C 
ATOM     18  O22 UNK H   1      45.796  16.046 204.526  0.00  0.00    +0.000 OA
ENDROOT
BRANCH   6  19
ATOM     19  O18 UNK H   1      41.923  18.734 195.296  0.00  0.00    +0.000 OA
ATOM     20  H9  UNK H   1      42.581  18.955 194.507  0.00  0.00    +0.000 HD
ENDBRANCH   6  19
BRANCH   5  21
ATOM     21  O19 UNK H   1      43.652  20.925 195.883  0.00  0.00    +0.000 OA
ATOM     22  H10 UNK H   1      43.440  20.571 194.918  0.00  0.00    +0.000 HD
ENDBRANCH   5  21
BRANCH   7  23
ATOM     23  O20 UNK H   1      46.941  19.407 199.522  0.00  0.00    +0.000 OA
ATOM     24  H11 UNK H   1      46.890  19.710 198.518  0.00  0.00    +0.000 HD
ENDBRANCH   7  23
BRANCH  17  25
ATOM     25  O21 UNK H   1      43.835  14.969 202.845  0.00  0.00    +0.000 OA
ATOM     26  H12 UNK H   1      44.250  14.535 203.707  0.00  0.00    +0.000 HD
ENDBRANCH  17  25
TORSDOF 4
ENDMDL
