MODEL 1
REMARK VINA RESULT:    -1.844      0.000      0.000
REMARK INTER + INTRA:          -6.031
REMARK INTER:                  -3.408
REMARK INTRA:                  -2.623
REMARK UNBOUND:                -2.623
REMARK  7 active torsions:
REMARK  status: ('A' for Active; 'I' for Inactive)
REMARK    1  A    between atoms: N2_1  and  C1_2 
REMARK    2  A    between atoms: C1_2  and  C2_3 
REMARK    3  A    between atoms: C2_3  and  C3_4 
REMARK       I    between atoms: C3_4  and  N1_6 
REMARK    4  A    between atoms: N1_6  and  C4_7 
REMARK    5  A    between atoms: C4_7  and  C13_8 
REMARK    6  A    between atoms: C4_7  and  C5_10 
REMARK    7  A    between atoms: C13_8  and  C7_9 
ROOT
HETATM    1  N2  BES   501      36.064  16.887 195.591  1.00  0.00    -0.079 N 
HETATM    2  H1  BES   501      36.769  16.847 196.395  1.00  0.00     0.274 HD
HETATM    3  H2  BES   501      35.721  15.898 195.369  1.00  0.00     0.274 HD
HETATM    4  H1  BES   501      35.233  17.497 195.877  1.00  0.00     0.274 HD
ENDROOT
BRANCH   1   5
HETATM    5  C1  BES   501      36.711  17.464 194.397  1.00  0.00     0.238 C 
BRANCH   5   6
HETATM    6  C2  BES   501      36.536  16.627 193.167  1.00  0.00     0.123 C 
BRANCH   6   7
HETATM    7  C3  BES   501      36.031  15.271 193.568  1.00  0.00     0.199 C 
HETATM    8  O3  BES   501      34.885  14.999 193.291  1.00  0.00    -0.280 OA
HETATM    9  N1  BES   501      36.938  14.347 194.263  1.00  0.00    -0.248 NA
HETATM   10  H7  BES   501      37.261  14.866 195.141  1.00  0.00     0.131 HD
BRANCH   9  11
HETATM   11  C4  BES   501      36.569  13.005 194.715  1.00  0.00     0.169 C 
BRANCH  11  12
HETATM   12  C13 BES   501      37.525  11.976 194.104  1.00  0.00     0.089 C 
BRANCH  12  13
HETATM   13  C7  BES   501      36.735  10.873 193.374  1.00  0.00     0.031 A 
HETATM   14  C21 BES   501      36.530   9.428 193.868  1.00  0.00     0.143 A 
HETATM   15  N22 BES   501      35.681   8.684 192.821  1.00  0.00    -0.254 N 
HETATM   16  C23 BES   501      35.361   9.668 191.680  1.00  0.00     0.209 A 
HETATM   17  N24 BES   501      36.013  11.020 192.022  1.00  0.00    -0.348 N 
HETATM   18  C1  BES   501      35.954  12.281 191.174  1.00  0.00     0.157 C 
ENDBRANCH  12  13
ENDBRANCH  11  12
BRANCH  11  19
HETATM   19  C5  BES   501      36.723  12.975 196.200  1.00  0.00     0.192 C 
HETATM   20  O1  BES   501      36.794  14.061 196.838  1.00  0.00    -0.647 OA
HETATM   21  O4  BES   501      36.729  11.834 196.761  1.00  0.00    -0.647 OA
ENDBRANCH  11  19
ENDBRANCH   9  11
ENDBRANCH   6   7
ENDBRANCH   5   6
ENDBRANCH   1   5
TORSDOF 7
REMARK  9 active torsions:
REMARK  status: ('A' for Active; 'I' for Inactive)
REMARK    1  A    between atoms: C70_1  and  C1_2 
REMARK    2  A    between atoms: C70_1  and  N12_20 
REMARK    3  A    between atoms: C1_2  and  C2_3 
REMARK    4  A    between atoms: C2_3  and  C3_4 
REMARK    5  A    between atoms: C2_3  and  O5_17 
REMARK       I    between atoms: C3_4  and  N1_6 
REMARK    6  A    between atoms: N1_6  and  C4_7 
REMARK    7  A    between atoms: C4_7  and  C13_8 
REMARK    8  A    between atoms: C4_7  and  C5_10 
REMARK    9  A    between atoms: C13_8  and  C7_9 
ROOT
HETATM    1  C70 BES A 501      31.201  16.235 193.065  1.00  6.08     0.232 C 
ENDROOT
BRANCH   1   2
HETATM    2  C1  BES A 501      31.070  15.992 194.446  1.00  6.71     0.068 C 
BRANCH   2   3
HETATM    3  C2  BES A 501      32.219  16.377 195.324  1.00  9.09     0.205 C 
BRANCH   3   4
HETATM    4  C3  BES A 501      32.887  15.130 195.830  1.00  8.29     0.227 C 
HETATM    5  O3  BES A 501      33.688  15.253 196.730  1.00  7.85    -0.277 OA
HETATM    6  N1  BES A 501      32.541  13.836 195.224  1.00  8.97    -0.246 NA
HETATM    7  H7  BES A 501      32.754  13.941 194.181  1.00  8.27     0.131 HD
BRANCH   6   8
HETATM    8  C4  BES A 501      33.124  12.554 195.617  1.00 10.85     0.169 C 
BRANCH   8   9
HETATM    9  C13 BES A 501      32.259  11.907 196.703  1.00  8.22     0.089 C 
BRANCH   9  10
HETATM   10  C7  BES A 501      32.947  12.015 198.078  1.00 11.21     0.029 A 
HETATM   11  C21 BES A 501      32.466  11.356 199.384  1.00  0.00     0.143 A 
HETATM   12  N22 BES A 501      33.457  11.735 200.500  1.00  0.00    -0.254 N 
HETATM   13  C23 BES A 501      34.549  12.629 199.884  1.00  0.00     0.207 A 
HETATM   14  N24 BES A 501      34.234  12.802 198.386  1.00  0.00    -0.353 N 
HETATM   15  H13 BES A 501      34.808  13.369 197.684  1.00  8.23     0.166 HD
ENDBRANCH   9  10
ENDBRANCH   8   9
BRANCH   8  16
HETATM   16  C5  BES A 501      33.116  11.670 194.413  1.00 10.09     0.192 C 
HETATM   17  O1  BES A 501      33.034  12.189 193.265  1.00  5.58    -0.647 OA
HETATM   18  O4  BES A 501      33.238  10.421 194.607  1.00  5.29    -0.647 OA
ENDBRANCH   8  16
ENDBRANCH   6   8
ENDBRANCH   3   4
BRANCH   3  19
HETATM   19  O5  BES A 501      33.204  17.189 194.538  1.00  8.27    -0.387 OA
HETATM   20  H15 BES A 501      32.705  17.683 193.756  1.00  8.22     0.210 HD
ENDBRANCH   3  19
ENDBRANCH   2   3
ENDBRANCH   1   2
BRANCH   1  21
HETATM   21  N12 BES A 501      32.007  15.114 192.426  1.00  8.22    -0.079 N 
HETATM   22  H14 BES A 501      32.930  14.995 192.952  1.00  8.22     0.274 HD
HETATM   23  H15 BES A 501      32.207  15.356 191.404  1.00  8.22     0.274 HD
HETATM   24  H1  BES A 501      31.449  14.202 192.474  1.00  8.22     0.274 HD
ENDBRANCH   1  21
TORSDOF 9
ENDMDL
MODEL 2
REMARK VINA RESULT:    -1.791      6.315      9.799
REMARK INTER + INTRA:          -5.933
REMARK INTER:                  -3.528
REMARK INTRA:                  -2.405
REMARK UNBOUND:                -2.623
REMARK  7 active torsions:
REMARK  status: ('A' for Active; 'I' for Inactive)
REMARK    1  A    between atoms: N2_1  and  C1_2 
REMARK    2  A    between atoms: C1_2  and  C2_3 
REMARK    3  A    between atoms: C2_3  and  C3_4 
REMARK       I    between atoms: C3_4  and  N1_6 
REMARK    4  A    between atoms: N1_6  and  C4_7 
REMARK    5  A    between atoms: C4_7  and  C13_8 
REMARK    6  A    between atoms: C4_7  and  C5_10 
REMARK    7  A    between atoms: C13_8  and  C7_9 
ROOT
HETATM    1  N2  BES   501      39.296  10.940 196.056  1.00  0.00    -0.079 N 
HETATM    2  H1  BES   501      39.029  11.649 195.300  1.00  0.00     0.274 HD
HETATM    3  H2  BES   501      40.355  10.786 196.040  1.00  0.00     0.274 HD
HETATM    4  H1  BES   501      39.005  11.316 197.015  1.00  0.00     0.274 HD
ENDROOT
BRANCH   1   5
HETATM    5  C1  BES   501      38.608   9.660 195.798  1.00  0.00     0.238 C 
BRANCH   5   6
HETATM    6  C2  BES   501      38.991   9.038 194.490  1.00  0.00     0.123 C 
BRANCH   6   7
HETATM    7  C3  BES   501      39.960   9.941 193.784  1.00  0.00     0.199 C 
HETATM    8  O3  BES   501      41.134   9.654 193.846  1.00  0.00    -0.280 OA
HETATM    9  N1  BES   501      39.448  11.111 193.057  1.00  0.00    -0.248 NA
HETATM   10  H7  BES   501      38.907  11.686 193.781  1.00  0.00     0.131 HD
BRANCH   9  11
HETATM   11  C4  BES   501      40.284  12.073 192.339  1.00  0.00     0.169 C 
BRANCH  11  12
HETATM   12  C13 BES   501      39.745  12.263 190.918  1.00  0.00     0.089 C 
BRANCH  12  13
HETATM   13  C7  BES   501      40.889  12.185 189.891  1.00  0.00     0.031 A 
HETATM   14  C21 BES   501      41.658  10.912 189.487  1.00  0.00     0.143 A 
HETATM   15  N22 BES   501      42.710  11.305 188.435  1.00  0.00    -0.254 N 
HETATM   16  C23 BES   501      42.593  12.821 188.187  1.00  0.00     0.209 A 
HETATM   17  N24 BES   501      41.467  13.364 189.087  1.00  0.00    -0.348 N 
HETATM   18  C1  BES   501      41.008  14.811 189.168  1.00  0.00     0.157 C 
ENDBRANCH  12  13
ENDBRANCH  11  12
BRANCH  11  19
HETATM   19  C5  BES   501      40.192  13.376 193.063  1.00  0.00     0.192 C 
HETATM   20  O1  BES   501      40.905  14.346 192.686  1.00  0.00    -0.647 OA
HETATM   21  O4  BES   501      39.350  13.456 194.012  1.00  0.00    -0.647 OA
ENDBRANCH  11  19
ENDBRANCH   9  11
ENDBRANCH   6   7
ENDBRANCH   5   6
ENDBRANCH   1   5
TORSDOF 7
REMARK  9 active torsions:
REMARK  status: ('A' for Active; 'I' for Inactive)
REMARK    1  A    between atoms: C70_1  and  C1_2 
REMARK    2  A    between atoms: C70_1  and  N12_20 
REMARK    3  A    between atoms: C1_2  and  C2_3 
REMARK    4  A    between atoms: C2_3  and  C3_4 
REMARK    5  A    between atoms: C2_3  and  O5_17 
REMARK       I    between atoms: C3_4  and  N1_6 
REMARK    6  A    between atoms: N1_6  and  C4_7 
REMARK    7  A    between atoms: C4_7  and  C13_8 
REMARK    8  A    between atoms: C4_7  and  C5_10 
REMARK    9  A    between atoms: C13_8  and  C7_9 
ROOT
HETATM    1  C70 BES A 501      41.077  15.927 196.439  1.00  6.08     0.232 C 
ENDROOT
BRANCH   1   2
HETATM    2  C1  BES A 501      41.593  14.616 196.416  1.00  6.71     0.068 C 
BRANCH   2   3
HETATM    3  C2  BES A 501      42.910  14.407 195.736  1.00  9.09     0.205 C 
BRANCH   3   4
HETATM    4  C3  BES A 501      43.007  12.977 195.288  1.00  8.29     0.227 C 
HETATM    5  O3  BES A 501      42.166  12.208 195.694  1.00  7.85    -0.277 OA
HETATM    6  N1  BES A 501      44.099  12.581 194.387  1.00  8.97    -0.246 NA
HETATM    7  H7  BES A 501      45.003  12.844 194.897  1.00  8.27     0.131 HD
BRANCH   6   8
HETATM    8  C4  BES A 501      44.311  11.223 193.887  1.00 10.85     0.169 C 
BRANCH   8   9
HETATM    9  C13 BES A 501      43.902  11.148 192.413  1.00  8.22     0.089 C 
BRANCH   9  10
HETATM   10  C7  BES A 501      44.306  12.437 191.673  1.00 11.21     0.029 A 
HETATM   11  C21 BES A 501      45.470  12.579 190.675  1.00  0.00     0.143 A 
HETATM   12  N22 BES A 501      45.501  14.039 190.187  1.00  0.00    -0.254 N 
HETATM   13  C23 BES A 501      44.357  14.799 190.883  1.00  0.00     0.207 A 
HETATM   14  N24 BES A 501      43.618  13.808 191.803  1.00  0.00    -0.353 N 
HETATM   15  H13 BES A 501      42.775  14.033 192.421  1.00  8.23     0.166 HD
ENDBRANCH   9  10
ENDBRANCH   8   9
BRANCH   8  16
HETATM   16  C5  BES A 501      45.773  10.931 193.989  1.00 10.09     0.192 C 
HETATM   17  O1  BES A 501      46.234   9.886 193.451  1.00  5.58    -0.647 OA
HETATM   18  O4  BES A 501      46.497  11.787 194.584  1.00  5.29    -0.647 OA
ENDBRANCH   8  16
ENDBRANCH   6   8
ENDBRANCH   3   4
BRANCH   3  19
HETATM   19  O5  BES A 501      43.011  15.314 194.545  1.00  8.27    -0.387 OA
HETATM   20  H15 BES A 501      42.087  15.786 194.386  1.00  8.22     0.210 HD
ENDBRANCH   3  19
ENDBRANCH   2   3
ENDBRANCH   1   2
BRANCH   1  21
HETATM   21  N12 BES A 501      40.209  16.152 195.210  1.00  8.22    -0.079 N 
HETATM   22  H14 BES A 501      40.827  16.438 194.385  1.00  8.22     0.274 HD
HETATM   23  H15 BES A 501      39.500  16.928 195.411  1.00  8.22     0.274 HD
HETATM   24  H1  BES A 501      39.690  15.248 194.970  1.00  8.22     0.274 HD
ENDBRANCH   1  21
TORSDOF 9
ENDMDL
MODEL 3
REMARK VINA RESULT:    -1.787      2.289      5.765
REMARK INTER + INTRA:          -5.925
REMARK INTER:                  -3.482
REMARK INTRA:                  -2.443
REMARK UNBOUND:                -2.623
REMARK  7 active torsions:
REMARK  status: ('A' for Active; 'I' for Inactive)
REMARK    1  A    between atoms: N2_1  and  C1_2 
REMARK    2  A    between atoms: C1_2  and  C2_3 
REMARK    3  A    between atoms: C2_3  and  C3_4 
REMARK       I    between atoms: C3_4  and  N1_6 
REMARK    4  A    between atoms: N1_6  and  C4_7 
REMARK    5  A    between atoms: C4_7  and  C13_8 
REMARK    6  A    between atoms: C4_7  and  C5_10 
REMARK    7  A    between atoms: C13_8  and  C7_9 
ROOT
HETATM    1  N2  BES   501      33.566  15.085 194.410  1.00  0.00    -0.079 N 
HETATM    2  H1  BES   501      33.274  15.969 194.937  1.00  0.00     0.274 HD
HETATM    3  H2  BES   501      34.137  15.358 193.546  1.00  0.00     0.274 HD
HETATM    4  H1  BES   501      34.162  14.469 195.051  1.00  0.00     0.274 HD
ENDROOT
BRANCH   1   5
HETATM    5  C1  BES   501      32.363  14.341 193.991  1.00  0.00     0.238 C 
BRANCH   5   6
HETATM    6  C2  BES   501      31.469  13.972 195.135  1.00  0.00     0.123 C 
BRANCH   6   7
HETATM    7  C3  BES   501      31.925  14.701 196.365  1.00  0.00     0.199 C 
HETATM    8  O3  BES   501      31.419  15.776 196.595  1.00  0.00    -0.280 OA
HETATM    9  N1  BES   501      32.944  14.085 197.225  1.00  0.00    -0.248 NA
HETATM   10  H7  BES   501      33.791  13.916 196.593  1.00  0.00     0.131 HD
BRANCH   9  11
HETATM   11  C4  BES   501      33.480  14.693 198.443  1.00  0.00     0.169 C 
BRANCH  11  12
HETATM   12  C13 BES   501      33.969  13.596 199.394  1.00  0.00     0.089 C 
BRANCH  12  13
HETATM   13  C7  BES   501      32.884  12.518 199.578  1.00  0.00     0.031 A 
HETATM   14  C21 BES   501      31.484  12.737 200.182  1.00  0.00     0.143 A 
HETATM   15  N22 BES   501      30.745  11.387 200.169  1.00  0.00    -0.254 N 
HETATM   16  C23 BES   501      31.686  10.333 199.556  1.00  0.00     0.209 A 
HETATM   17  N24 BES   501      33.009  11.033 199.192  1.00  0.00    -0.348 N 
HETATM   18  C1  BES   501      34.225  10.373 198.560  1.00  0.00     0.157 C 
ENDBRANCH  12  13
ENDBRANCH  11  12
BRANCH  11  19
HETATM   19  C5  BES   501      34.648  15.535 198.047  1.00  0.00     0.192 C 
HETATM   20  O1  BES   501      34.933  16.558 198.728  1.00  0.00    -0.647 OA
HETATM   21  O4  BES   501      35.336  15.146 197.051  1.00  0.00    -0.647 OA
ENDBRANCH  11  19
ENDBRANCH   9  11
ENDBRANCH   6   7
ENDBRANCH   5   6
ENDBRANCH   1   5
TORSDOF 7
REMARK  9 active torsions:
REMARK  status: ('A' for Active; 'I' for Inactive)
REMARK    1  A    between atoms: C70_1  and  C1_2 
REMARK    2  A    between atoms: C70_1  and  N12_20 
REMARK    3  A    between atoms: C1_2  and  C2_3 
REMARK    4  A    between atoms: C2_3  and  C3_4 
REMARK    5  A    between atoms: C2_3  and  O5_17 
REMARK       I    between atoms: C3_4  and  N1_6 
REMARK    6  A    between atoms: N1_6  and  C4_7 
REMARK    7  A    between atoms: C4_7  and  C13_8 
REMARK    8  A    between atoms: C4_7  and  C5_10 
REMARK    9  A    between atoms: C13_8  and  C7_9 
ROOT
HETATM    1  C70 BES A 501      38.606  17.033 196.144  1.00  6.08     0.232 C 
ENDROOT
BRANCH   1   2
HETATM    2  C1  BES A 501      38.351  15.880 195.374  1.00  6.71     0.068 C 
BRANCH   2   3
HETATM    3  C2  BES A 501      37.312  15.985 194.303  1.00  9.09     0.205 C 
BRANCH   3   4
HETATM    4  C3  BES A 501      36.896  14.602 193.888  1.00  8.29     0.227 C 
HETATM    5  O3  BES A 501      36.408  14.473 192.788  1.00  7.85    -0.277 OA
HETATM    6  N1  BES A 501      37.103  13.483 194.819  1.00  8.97    -0.246 NA
HETATM    7  H7  BES A 501      36.573  13.748 195.710  1.00  8.27     0.131 HD
BRANCH   6   8
HETATM    8  C4  BES A 501      36.735  12.095 194.541  1.00 10.85     0.169 C 
BRANCH   8   9
HETATM    9  C13 BES A 501      37.379  11.174 195.582  1.00  8.22     0.089 C 
BRANCH   9  10
HETATM   10  C7  BES A 501      37.944  11.997 196.756  1.00 11.21     0.029 A 
HETATM   11  C21 BES A 501      39.422  12.071 197.181  1.00  0.00     0.143 A 
HETATM   12  N22 BES A 501      39.521  13.010 198.397  1.00  0.00    -0.254 N 
HETATM   13  C23 BES A 501      38.104  13.517 198.724  1.00  0.00     0.207 A 
HETATM   14  N24 BES A 501      37.128  12.890 197.709  1.00  0.00    -0.353 N 
HETATM   15  H13 BES A 501      36.071  13.048 197.673  1.00  8.23     0.166 HD
ENDBRANCH   9  10
ENDBRANCH   8   9
BRANCH   8  16
HETATM   16  C5  BES A 501      35.250  11.991 194.670  1.00 10.09     0.192 C 
HETATM   17  O1  BES A 501      34.695  12.357 195.743  1.00  5.58    -0.647 OA
HETATM   18  O4  BES A 501      34.606  11.574 193.659  1.00  5.29    -0.647 OA
ENDBRANCH   8  16
ENDBRANCH   6   8
ENDBRANCH   3   4
BRANCH   3  19
HETATM   19  O5  BES A 501      36.121  16.730 194.827  1.00  8.27    -0.387 OA
HETATM   20  H15 BES A 501      35.614  17.187 194.029  1.00  8.22     0.210 HD
ENDBRANCH   3  19
ENDBRANCH   2   3
ENDBRANCH   1   2
BRANCH   1  21
HETATM   21  N12 BES A 501      37.764  16.995 197.410  1.00  8.22    -0.079 N 
HETATM   22  H14 BES A 501      37.673  15.984 197.747  1.00  8.22     0.274 HD
HETATM   23  H15 BES A 501      36.792  17.391 197.204  1.00  8.22     0.274 HD
HETATM   24  H1  BES A 501      38.235  17.583 198.169  1.00  8.22     0.274 HD
ENDBRANCH   1  21
TORSDOF 9
ENDMDL
MODEL 4
REMARK VINA RESULT:    -1.780      5.753      9.525
REMARK INTER + INTRA:          -5.912
REMARK INTER:                  -3.577
REMARK INTRA:                  -2.335
REMARK UNBOUND:                -2.623
REMARK  7 active torsions:
REMARK  status: ('A' for Active; 'I' for Inactive)
REMARK    1  A    between atoms: N2_1  and  C1_2 
REMARK    2  A    between atoms: C1_2  and  C2_3 
REMARK    3  A    between atoms: C2_3  and  C3_4 
REMARK       I    between atoms: C3_4  and  N1_6 
REMARK    4  A    between atoms: N1_6  and  C4_7 
REMARK    5  A    between atoms: C4_7  and  C13_8 
REMARK    6  A    between atoms: C4_7  and  C5_10 
REMARK    7  A    between atoms: C13_8  and  C7_9 
ROOT
HETATM    1  N2  BES   501      44.577  18.706 193.158  1.00  0.00    -0.079 N 
HETATM    2  H1  BES   501      43.755  18.627 193.840  1.00  0.00     0.274 HD
HETATM    3  H2  BES   501      44.339  18.188 192.253  1.00  0.00     0.274 HD
HETATM    4  H1  BES   501      44.760  19.738 192.941  1.00  0.00     0.274 HD
ENDROOT
BRANCH   1   5
HETATM    5  C1  BES   501      45.781  18.109 193.767  1.00  0.00     0.238 C 
BRANCH   5   6
HETATM    6  C2  BES   501      45.469  17.105 194.832  1.00  0.00     0.123 C 
BRANCH   6   7
HETATM    7  C3  BES   501      43.980  16.931 194.918  1.00  0.00     0.199 C 
HETATM    8  O3  BES   501      43.507  15.933 194.421  1.00  0.00    -0.280 OA
HETATM    9  N1  BES   501      43.177  17.959 195.593  1.00  0.00    -0.248 NA
HETATM   10  H7  BES   501      43.387  18.873 195.077  1.00  0.00     0.131 HD
BRANCH   9  11
HETATM   11  C4  BES   501      41.721  17.915 195.735  1.00  0.00     0.169 C 
BRANCH  11  12
HETATM   12  C13 BES   501      41.265  19.015 196.698  1.00  0.00     0.089 C 
BRANCH  12  13
HETATM   13  C7  BES   501      39.776  18.838 197.052  1.00  0.00     0.031 A 
HETATM   14  C21 BES   501      38.617  19.724 196.558  1.00  0.00     0.143 A 
HETATM   15  N22 BES   501      37.311  19.180 197.163  1.00  0.00    -0.254 N 
HETATM   16  C23 BES   501      37.661  17.957 198.032  1.00  0.00     0.209 A 
HETATM   17  N24 BES   501      39.185  17.747 197.962  1.00  0.00    -0.348 N 
HETATM   18  C1  BES   501      39.969  16.652 198.670  1.00  0.00     0.157 C 
ENDBRANCH  12  13
ENDBRANCH  11  12
BRANCH  11  19
HETATM   19  C5  BES   501      41.131  18.185 194.390  1.00  0.00     0.192 C 
HETATM   20  O1  BES   501      40.363  17.331 193.867  1.00  0.00    -0.647 OA
HETATM   21  O4  BES   501      41.403  19.303 193.849  1.00  0.00    -0.647 OA
ENDBRANCH  11  19
ENDBRANCH   9  11
ENDBRANCH   6   7
ENDBRANCH   5   6
ENDBRANCH   1   5
TORSDOF 7
REMARK  9 active torsions:
REMARK  status: ('A' for Active; 'I' for Inactive)
REMARK    1  A    between atoms: C70_1  and  C1_2 
REMARK    2  A    between atoms: C70_1  and  N12_20 
REMARK    3  A    between atoms: C1_2  and  C2_3 
REMARK    4  A    between atoms: C2_3  and  C3_4 
REMARK    5  A    between atoms: C2_3  and  O5_17 
REMARK       I    between atoms: C3_4  and  N1_6 
REMARK    6  A    between atoms: N1_6  and  C4_7 
REMARK    7  A    between atoms: C4_7  and  C13_8 
REMARK    8  A    between atoms: C4_7  and  C5_10 
REMARK    9  A    between atoms: C13_8  and  C7_9 
ROOT
HETATM    1  C70 BES A 501      38.194  14.400 194.934  1.00  6.08     0.232 C 
ENDROOT
BRANCH   1   2
HETATM    2  C1  BES A 501      38.993  14.023 193.835  1.00  6.71     0.068 C 
BRANCH   2   3
HETATM    3  C2  BES A 501      40.422  13.677 194.111  1.00  9.09     0.205 C 
BRANCH   3   4
HETATM    4  C3  BES A 501      41.196  13.736 192.826  1.00  8.29     0.227 C 
HETATM    5  O3  BES A 501      41.638  12.696 192.392  1.00  7.85    -0.277 OA
HETATM    6  N1  BES A 501      41.377  15.033 192.158  1.00  8.97    -0.246 NA
HETATM    7  H7  BES A 501      41.857  15.663 192.878  1.00  8.27     0.131 HD
BRANCH   6   8
HETATM    8  C4  BES A 501      42.116  15.228 190.911  1.00 10.85     0.169 C 
BRANCH   8   9
HETATM    9  C13 BES A 501      41.132  15.488 189.766  1.00  8.22     0.089 C 
BRANCH   9  10
HETATM   10  C7  BES A 501      39.716  15.740 190.317  1.00 11.21     0.029 A 
HETATM   11  C21 BES A 501      38.486  14.838 190.099  1.00  0.00     0.143 A 
HETATM   12  N22 BES A 501      37.292  15.479 190.830  1.00  0.00    -0.254 N 
HETATM   13  C23 BES A 501      37.783  16.776 191.499  1.00  0.00     0.207 A 
HETATM   14  N24 BES A 501      39.282  16.938 191.182  1.00  0.00    -0.353 N 
HETATM   15  H13 BES A 501      39.910  17.740 191.506  1.00  8.23     0.166 HD
ENDBRANCH   9  10
ENDBRANCH   8   9
BRANCH   8  16
HETATM   16  C5  BES A 501      42.974  16.439 191.083  1.00 10.09     0.192 C 
HETATM   17  O1  BES A 501      42.431  17.575 191.172  1.00  5.58    -0.647 OA
HETATM   18  O4  BES A 501      44.227  16.256 191.178  1.00  5.29    -0.647 OA
ENDBRANCH   8  16
ENDBRANCH   6   8
ENDBRANCH   3   4
BRANCH   3  19
HETATM   19  O5  BES A 501      40.998  14.657 195.090  1.00  8.27    -0.387 OA
HETATM   20  H15 BES A 501      40.672  14.416 196.059  1.00  8.22     0.210 HD
ENDBRANCH   3  19
ENDBRANCH   2   3
ENDBRANCH   1   2
BRANCH   1  21
HETATM   21  N12 BES A 501      38.195  15.915 195.065  1.00  8.22    -0.079 N 
HETATM   22  H14 BES A 501      37.219  16.293 194.844  1.00  8.22     0.274 HD
HETATM   23  H15 BES A 501      38.902  16.333 194.380  1.00  8.22     0.274 HD
HETATM   24  H1  BES A 501      38.463  16.187 196.064  1.00  8.22     0.274 HD
ENDBRANCH   1  21
TORSDOF 9
ENDMDL
MODEL 5
REMARK VINA RESULT:    -1.764      3.975      7.643
REMARK INTER + INTRA:          -5.883
REMARK INTER:                  -3.089
REMARK INTRA:                  -2.794
REMARK UNBOUND:                -2.623
REMARK  7 active torsions:
REMARK  status: ('A' for Active; 'I' for Inactive)
REMARK    1  A    between atoms: N2_1  and  C1_2 
REMARK    2  A    between atoms: C1_2  and  C2_3 
REMARK    3  A    between atoms: C2_3  and  C3_4 
REMARK       I    between atoms: C3_4  and  N1_6 
REMARK    4  A    between atoms: N1_6  and  C4_7 
REMARK    5  A    between atoms: C4_7  and  C13_8 
REMARK    6  A    between atoms: C4_7  and  C5_10 
REMARK    7  A    between atoms: C13_8  and  C7_9 
ROOT
HETATM    1  N2  BES   501      33.479  14.631 195.525  1.00  0.00    -0.079 N 
HETATM    2  H1  BES   501      33.006  15.523 195.170  1.00  0.00     0.274 HD
HETATM    3  H2  BES   501      33.573  14.677 196.590  1.00  0.00     0.274 HD
HETATM    4  H1  BES   501      32.884  13.783 195.256  1.00  0.00     0.274 HD
ENDROOT
BRANCH   1   5
HETATM    5  C1  BES   501      34.817  14.506 194.915  1.00  0.00     0.238 C 
BRANCH   5   6
HETATM    6  C2  BES   501      35.918  15.003 195.801  1.00  0.00     0.123 C 
BRANCH   6   7
HETATM    7  C3  BES   501      35.325  15.478 197.096  1.00  0.00     0.199 C 
HETATM    8  O3  BES   501      35.293  14.692 198.016  1.00  0.00    -0.280 OA
HETATM    9  N1  BES   501      34.823  16.856 197.191  1.00  0.00    -0.248 NA
HETATM   10  H7  BES   501      34.085  16.947 196.421  1.00  0.00     0.131 HD
BRANCH   9  11
HETATM   11  C4  BES   501      34.215  17.438 198.388  1.00  0.00     0.169 C 
BRANCH  11  12
HETATM   12  C13 BES   501      34.851  18.801 198.677  1.00  0.00     0.089 C 
BRANCH  12  13
HETATM   13  C7  BES   501      35.303  18.884 200.147  1.00  0.00     0.031 A 
HETATM   14  C21 BES   501      34.379  18.926 201.378  1.00  0.00     0.143 A 
HETATM   15  N22 BES   501      35.263  19.009 202.635  1.00  0.00    -0.254 N 
HETATM   16  C23 BES   501      36.736  19.018 202.182  1.00  0.00     0.209 A 
HETATM   17  N24 BES   501      36.759  18.941 200.644  1.00  0.00    -0.348 N 
HETATM   18  C1  BES   501      38.004  18.924 199.770  1.00  0.00     0.157 C 
ENDBRANCH  12  13
ENDBRANCH  11  12
BRANCH  11  19
HETATM   19  C5  BES   501      32.764  17.640 198.100  1.00  0.00     0.192 C 
HETATM   20  O1  BES   501      32.120  16.739 197.496  1.00  0.00    -0.647 OA
HETATM   21  O4  BES   501      32.230  18.712 198.525  1.00  0.00    -0.647 OA
ENDBRANCH  11  19
ENDBRANCH   9  11
ENDBRANCH   6   7
ENDBRANCH   5   6
ENDBRANCH   1   5
TORSDOF 7
REMARK  9 active torsions:
REMARK  status: ('A' for Active; 'I' for Inactive)
REMARK    1  A    between atoms: C70_1  and  C1_2 
REMARK    2  A    between atoms: C70_1  and  N12_20 
REMARK    3  A    between atoms: C1_2  and  C2_3 
REMARK    4  A    between atoms: C2_3  and  C3_4 
REMARK    5  A    between atoms: C2_3  and  O5_17 
REMARK       I    between atoms: C3_4  and  N1_6 
REMARK    6  A    between atoms: N1_6  and  C4_7 
REMARK    7  A    between atoms: C4_7  and  C13_8 
REMARK    8  A    between atoms: C4_7  and  C5_10 
REMARK    9  A    between atoms: C13_8  and  C7_9 
ROOT
HETATM    1  C70 BES A 501      33.178  11.694 199.405  1.00  6.08     0.232 C 
ENDROOT
BRANCH   1   2
HETATM    2  C1  BES A 501      32.547  12.519 200.356  1.00  6.71     0.068 C 
BRANCH   2   3
HETATM    3  C2  BES A 501      32.222  13.921 199.943  1.00  9.09     0.205 C 
BRANCH   3   4
HETATM    4  C3  BES A 501      33.089  14.871 200.718  1.00  8.29     0.227 C 
HETATM    5  O3  BES A 501      32.573  15.885 201.133  1.00  7.85    -0.277 OA
HETATM    6  N1  BES A 501      34.502  14.533 200.942  1.00  8.97    -0.246 NA
HETATM    7  H7  BES A 501      34.924  14.401 199.967  1.00  8.27     0.131 HD
BRANCH   6   8
HETATM    8  C4  BES A 501      35.452  15.375 201.669  1.00 10.85     0.169 C 
BRANCH   8   9
HETATM    9  C13 BES A 501      35.325  15.112 203.173  1.00  8.22     0.089 C 
BRANCH   9  10
HETATM   10  C7  BES A 501      34.713  13.721 203.428  1.00 11.21     0.029 A 
HETATM   11  C21 BES A 501      33.420  13.433 204.214  1.00  0.00     0.143 A 
HETATM   12  N22 BES A 501      33.194  11.909 204.214  1.00  0.00    -0.254 N 
HETATM   13  C23 BES A 501      34.348  11.256 203.429  1.00  0.00     0.207 A 
HETATM   14  N24 BES A 501      35.287  12.377 202.943  1.00  0.00    -0.353 N 
HETATM   15  H13 BES A 501      36.180  12.245 202.370  1.00  8.23     0.166 HD
ENDBRANCH   9  10
ENDBRANCH   8   9
BRANCH   8  16
HETATM   16  C5  BES A 501      36.825  14.982 201.232  1.00 10.09     0.192 C 
HETATM   17  O1  BES A 501      37.790  15.769 201.441  1.00  5.58    -0.647 OA
HETATM   18  O4  BES A 501      36.962  13.835 200.704  1.00  5.29    -0.647 OA
ENDBRANCH   8  16
ENDBRANCH   6   8
ENDBRANCH   3   4
BRANCH   3  19
HETATM   19  O5  BES A 501      32.484  14.087 198.476  1.00  8.27    -0.387 OA
HETATM   20  H15 BES A 501      33.132  13.328 198.148  1.00  8.22     0.210 HD
ENDBRANCH   3  19
ENDBRANCH   2   3
ENDBRANCH   1   2
BRANCH   1  21
HETATM   21  N12 BES A 501      34.665  12.012 199.364  1.00  8.22    -0.079 N 
HETATM   22  H14 BES A 501      34.840  12.808 198.671  1.00  8.22     0.274 HD
HETATM   23  H15 BES A 501      35.207  11.144 199.053  1.00  8.22     0.274 HD
HETATM   24  H1  BES A 501      34.993  12.308 200.338  1.00  8.22     0.274 HD
ENDBRANCH   1  21
TORSDOF 9
ENDMDL
MODEL 6
REMARK VINA RESULT:    -1.752      5.499      8.186
REMARK INTER + INTRA:          -5.860
REMARK INTER:                  -3.646
REMARK INTRA:                  -2.214
REMARK UNBOUND:                -2.623
REMARK  7 active torsions:
REMARK  status: ('A' for Active; 'I' for Inactive)
REMARK    1  A    between atoms: N2_1  and  C1_2 
REMARK    2  A    between atoms: C1_2  and  C2_3 
REMARK    3  A    between atoms: C2_3  and  C3_4 
REMARK       I    between atoms: C3_4  and  N1_6 
REMARK    4  A    between atoms: N1_6  and  C4_7 
REMARK    5  A    between atoms: C4_7  and  C13_8 
REMARK    6  A    between atoms: C4_7  and  C5_10 
REMARK    7  A    between atoms: C13_8  and  C7_9 
ROOT
HETATM    1  N2  BES   501      41.246  11.753 201.824  1.00  0.00    -0.079 N 
HETATM    2  H1  BES   501      41.247  12.409 200.977  1.00  0.00     0.274 HD
HETATM    3  H2  BES   501      42.057  12.009 202.473  1.00  0.00     0.274 HD
HETATM    4  H1  BES   501      40.320  11.856 202.351  1.00  0.00     0.274 HD
ENDROOT
BRANCH   1   5
HETATM    5  C1  BES   501      41.401  10.358 201.367  1.00  0.00     0.238 C 
BRANCH   5   6
HETATM    6  C2  BES   501      41.958  10.249 199.981  1.00  0.00     0.123 C 
BRANCH   6   7
HETATM    7  C3  BES   501      42.575  11.564 199.598  1.00  0.00     0.199 C 
HETATM    8  O3  BES   501      43.739  11.736 199.880  1.00  0.00    -0.280 OA
HETATM    9  N1  BES   501      41.752  12.564 198.904  1.00  0.00    -0.248 NA
HETATM   10  H7  BES   501      40.919  12.751 199.550  1.00  0.00     0.131 HD
BRANCH   9  11
HETATM   11  C4  BES   501      42.227  13.883 198.486  1.00  0.00     0.169 C 
BRANCH  11  12
HETATM   12  C13 BES   501      41.854  14.124 197.020  1.00  0.00     0.089 C 
BRANCH  12  13
HETATM   13  C7  BES   501      42.845  13.406 196.086  1.00  0.00     0.031 A 
HETATM   14  C21 BES   501      42.614  12.051 195.390  1.00  0.00     0.143 A 
HETATM   15  N22 BES   501      43.867  11.724 194.558  1.00  0.00    -0.254 N 
HETATM   16  C23 BES   501      44.873  12.876 194.739  1.00  0.00     0.209 A 
HETATM   17  N24 BES   501      44.241  13.915 195.683  1.00  0.00    -0.348 N 
HETATM   18  C1  BES   501      44.883  15.216 196.138  1.00  0.00     0.157 C 
ENDBRANCH  12  13
ENDBRANCH  11  12
BRANCH  11  19
HETATM   19  C5  BES   501      41.528  14.899 199.329  1.00  0.00     0.192 C 
HETATM   20  O1  BES   501      41.576  14.800 200.586  1.00  0.00    -0.647 OA
HETATM   21  O4  BES   501      40.946  15.855 198.726  1.00  0.00    -0.647 OA
ENDBRANCH  11  19
ENDBRANCH   9  11
ENDBRANCH   6   7
ENDBRANCH   5   6
ENDBRANCH   1   5
TORSDOF 7
REMARK  9 active torsions:
REMARK  status: ('A' for Active; 'I' for Inactive)
REMARK    1  A    between atoms: C70_1  and  C1_2 
REMARK    2  A    between atoms: C70_1  and  N12_20 
REMARK    3  A    between atoms: C1_2  and  C2_3 
REMARK    4  A    between atoms: C2_3  and  C3_4 
REMARK    5  A    between atoms: C2_3  and  O5_17 
REMARK       I    between atoms: C3_4  and  N1_6 
REMARK    6  A    between atoms: N1_6  and  C4_7 
REMARK    7  A    between atoms: C4_7  and  C13_8 
REMARK    8  A    between atoms: C4_7  and  C5_10 
REMARK    9  A    between atoms: C13_8  and  C7_9 
ROOT
HETATM    1  C70 BES A 501      38.053  16.349 201.961  1.00  6.08     0.232 C 
ENDROOT
BRANCH   1   2
HETATM    2  C1  BES A 501      37.360  15.238 201.442  1.00  6.71     0.068 C 
BRANCH   2   3
HETATM    3  C2  BES A 501      38.052  13.911 201.491  1.00  9.09     0.205 C 
BRANCH   3   4
HETATM    4  C3  BES A 501      38.385  13.482 200.091  1.00  8.29     0.227 C 
HETATM    5  O3  BES A 501      38.977  12.436 199.954  1.00  7.85    -0.277 OA
HETATM    6  N1  BES A 501      37.979  14.336 198.965  1.00  8.97    -0.246 NA
HETATM    7  H7  BES A 501      38.430  15.289 199.148  1.00  8.27     0.131 HD
BRANCH   6   8
HETATM    8  C4  BES A 501      38.250  14.038 197.558  1.00 10.85     0.169 C 
BRANCH   8   9
HETATM    9  C13 BES A 501      37.268  12.973 197.060  1.00  8.22     0.089 C 
BRANCH   9  10
HETATM   10  C7  BES A 501      38.003  11.649 196.779  1.00 11.21     0.029 A 
HETATM   11  C21 BES A 501      37.410  10.418 196.069  1.00  0.00     0.143 A 
HETATM   12  N22 BES A 501      38.501   9.332 196.011  1.00  0.00    -0.254 N 
HETATM   13  C23 BES A 501      39.767   9.891 196.686  1.00  0.00     0.207 A 
HETATM   14  N24 BES A 501      39.459  11.324 197.161  1.00  0.00    -0.353 N 
HETATM   15  H13 BES A 501      40.138  11.978 197.667  1.00  8.23     0.166 HD
ENDBRANCH   9  10
ENDBRANCH   8   9
BRANCH   8  16
HETATM   16  C5  BES A 501      38.023  15.294 196.782  1.00 10.09     0.192 C 
HETATM   17  O1  BES A 501      38.805  15.586 195.836  1.00  5.58    -0.647 OA
HETATM   18  O4  BES A 501      37.009  15.993 197.090  1.00  5.29    -0.647 OA
ENDBRANCH   8  16
ENDBRANCH   6   8
ENDBRANCH   3   4
BRANCH   3  19
HETATM   19  O5  BES A 501      39.314  14.031 202.292  1.00  8.27    -0.387 OA
HETATM   20  H15 BES A 501      39.078  14.054 203.315  1.00  8.22     0.210 HD
ENDBRANCH   3  19
ENDBRANCH   2   3
ENDBRANCH   1   2
BRANCH   1  21
HETATM   21  N12 BES A 501      39.077  16.828 200.943  1.00  8.22    -0.079 N 
HETATM   22  H14 BES A 501      39.175  16.100 200.166  1.00  8.22     0.274 HD
HETATM   23  H15 BES A 501      40.022  16.965 201.425  1.00  8.22     0.274 HD
HETATM   24  H1  BES A 501      38.754  17.757 200.522  1.00  8.22     0.274 HD
ENDBRANCH   1  21
TORSDOF 9
ENDMDL
MODEL 7
REMARK VINA RESULT:    -1.737      3.995      7.970
REMARK INTER + INTRA:          -5.832
REMARK INTER:                  -3.216
REMARK INTRA:                  -2.616
REMARK UNBOUND:                -2.623
REMARK  7 active torsions:
REMARK  status: ('A' for Active; 'I' for Inactive)
REMARK    1  A    between atoms: N2_1  and  C1_2 
REMARK    2  A    between atoms: C1_2  and  C2_3 
REMARK    3  A    between atoms: C2_3  and  C3_4 
REMARK       I    between atoms: C3_4  and  N1_6 
REMARK    4  A    between atoms: N1_6  and  C4_7 
REMARK    5  A    between atoms: C4_7  and  C13_8 
REMARK    6  A    between atoms: C4_7  and  C5_10 
REMARK    7  A    between atoms: C13_8  and  C7_9 
ROOT
HETATM    1  N2  BES   501      40.882  14.717 197.292  1.00  0.00    -0.079 N 
HETATM    2  H1  BES   501      41.358  13.763 197.379  1.00  0.00     0.274 HD
HETATM    3  H2  BES   501      41.592  15.438 196.942  1.00  0.00     0.274 HD
HETATM    4  H1  BES   501      40.072  14.648 196.596  1.00  0.00     0.274 HD
ENDROOT
BRANCH   1   5
HETATM    5  C1  BES   501      40.366  15.132 198.611  1.00  0.00     0.238 C 
BRANCH   5   6
HETATM    6  C2  BES   501      39.541  16.381 198.555  1.00  0.00     0.123 C 
BRANCH   6   7
HETATM    7  C3  BES   501      39.553  16.912 197.151  1.00  0.00     0.199 C 
HETATM    8  O3  BES   501      38.544  16.776 196.496  1.00  0.00    -0.280 OA
HETATM    9  N1  BES   501      40.766  17.567 196.643  1.00  0.00    -0.248 NA
HETATM   10  H7  BES   501      41.548  16.842 196.743  1.00  0.00     0.131 HD
BRANCH   9  11
HETATM   11  C4  BES   501      40.911  18.116 195.295  1.00  0.00     0.169 C 
BRANCH  11  12
HETATM   12  C13 BES   501      41.156  19.625 195.378  1.00  0.00     0.089 C 
BRANCH  12  13
HETATM   13  C7  BES   501      40.016  20.396 194.684  1.00  0.00     0.031 A 
HETATM   14  C21 BES   501      39.963  20.788 193.195  1.00  0.00     0.143 A 
HETATM   15  N22 BES   501      38.646  21.544 192.949  1.00  0.00    -0.254 N 
HETATM   16  C23 BES   501      37.882  21.620 194.285  1.00  0.00     0.209 A 
HETATM   17  N24 BES   501      38.731  20.910 195.357  1.00  0.00    -0.348 N 
HETATM   18  C1  BES   501      38.363  20.746 196.823  1.00  0.00     0.157 C 
ENDBRANCH  12  13
ENDBRANCH  11  12
BRANCH  11  19
HETATM   19  C5  BES   501      42.108  17.472 194.675  1.00  0.00     0.192 C 
HETATM   20  O1  BES   501      42.704  18.055 193.728  1.00  0.00    -0.647 OA
HETATM   21  O4  BES   501      42.499  16.370 195.172  1.00  0.00    -0.647 OA
ENDBRANCH  11  19
ENDBRANCH   9  11
ENDBRANCH   6   7
ENDBRANCH   5   6
ENDBRANCH   1   5
TORSDOF 7
REMARK  9 active torsions:
REMARK  status: ('A' for Active; 'I' for Inactive)
REMARK    1  A    between atoms: C70_1  and  C1_2 
REMARK    2  A    between atoms: C70_1  and  N12_20 
REMARK    3  A    between atoms: C1_2  and  C2_3 
REMARK    4  A    between atoms: C2_3  and  C3_4 
REMARK    5  A    between atoms: C2_3  and  O5_17 
REMARK       I    between atoms: C3_4  and  N1_6 
REMARK    6  A    between atoms: N1_6  and  C4_7 
REMARK    7  A    between atoms: C4_7  and  C13_8 
REMARK    8  A    between atoms: C4_7  and  C5_10 
REMARK    9  A    between atoms: C13_8  and  C7_9 
ROOT
HETATM    1  C70 BES A 501      36.083  14.247 197.044  1.00  6.08     0.232 C 
ENDROOT
BRANCH   1   2
HETATM    2  C1  BES A 501      35.555  15.009 195.983  1.00  6.71     0.068 C 
BRANCH   2   3
HETATM    3  C2  BES A 501      35.129  14.272 194.752  1.00  9.09     0.205 C 
BRANCH   3   4
HETATM    4  C3  BES A 501      36.087  14.586 193.639  1.00  8.29     0.227 C 
HETATM    5  O3  BES A 501      35.833  14.140 192.543  1.00  7.85    -0.277 OA
HETATM    6  N1  BES A 501      37.269  15.412 193.923  1.00  8.97    -0.246 NA
HETATM    7  H7  BES A 501      37.800  14.898 194.698  1.00  8.27     0.131 HD
BRANCH   6   8
HETATM    8  C4  BES A 501      38.281  15.780 192.933  1.00 10.85     0.169 C 
BRANCH   8   9
HETATM    9  C13 BES A 501      38.499  17.296 192.960  1.00  8.22     0.089 C 
BRANCH   9  10
HETATM   10  C7  BES A 501      37.199  18.022 193.356  1.00 11.21     0.029 A 
HETATM   11  C21 BES A 501      36.222  18.718 192.391  1.00  0.00     0.143 A 
HETATM   12  N22 BES A 501      35.068  19.304 193.225  1.00  0.00    -0.254 N 
HETATM   13  C23 BES A 501      35.332  18.972 194.705  1.00  0.00     0.207 A 
HETATM   14  N24 BES A 501      36.651  18.179 194.786  1.00  0.00    -0.353 N 
HETATM   15  H13 BES A 501      37.104  17.804 195.679  1.00  8.23     0.166 HD
ENDBRANCH   9  10
ENDBRANCH   8   9
BRANCH   8  16
HETATM   16  C5  BES A 501      39.557  15.110 193.325  1.00 10.09     0.192 C 
HETATM   17  O1  BES A 501      40.551  15.168 192.548  1.00  5.58    -0.647 OA
HETATM   18  O4  BES A 501      39.592  14.544 194.461  1.00  5.29    -0.647 OA
ENDBRANCH   8  16
ENDBRANCH   6   8
ENDBRANCH   3   4
BRANCH   3  19
HETATM   19  O5  BES A 501      35.138  12.797 195.020  1.00  8.27    -0.387 OA
HETATM   20  H15 BES A 501      35.486  12.289 194.170  1.00  8.22     0.210 HD
ENDBRANCH   3  19
ENDBRANCH   2   3
ENDBRANCH   1   2
BRANCH   1  21
HETATM   21  N12 BES A 501      37.515  13.849 196.720  1.00  8.22    -0.079 N 
HETATM   22  H14 BES A 501      37.996  13.497 197.608  1.00  8.22     0.274 HD
HETATM   23  H15 BES A 501      38.044  14.697 196.340  1.00  8.22     0.274 HD
HETATM   24  H1  BES A 501      37.511  13.072 195.985  1.00  8.22     0.274 HD
ENDBRANCH   1  21
TORSDOF 9
ENDMDL
MODEL 8
REMARK VINA RESULT:    -1.714      5.701      8.786
REMARK INTER + INTRA:          -5.790
REMARK INTER:                  -3.479
REMARK INTRA:                  -2.311
REMARK UNBOUND:                -2.623
REMARK  7 active torsions:
REMARK  status: ('A' for Active; 'I' for Inactive)
REMARK    1  A    between atoms: N2_1  and  C1_2 
REMARK    2  A    between atoms: C1_2  and  C2_3 
REMARK    3  A    between atoms: C2_3  and  C3_4 
REMARK       I    between atoms: C3_4  and  N1_6 
REMARK    4  A    between atoms: N1_6  and  C4_7 
REMARK    5  A    between atoms: C4_7  and  C13_8 
REMARK    6  A    between atoms: C4_7  and  C5_10 
REMARK    7  A    between atoms: C13_8  and  C7_9 
ROOT
HETATM    1  N2  BES   501      44.431  12.425 189.892  1.00  0.00    -0.079 N 
HETATM    2  H1  BES   501      45.025  12.075 190.710  1.00  0.00     0.274 HD
HETATM    3  H2  BES   501      43.943  13.336 190.171  1.00  0.00     0.274 HD
HETATM    4  H1  BES   501      45.061  12.603 189.045  1.00  0.00     0.274 HD
ENDROOT
BRANCH   1   5
HETATM    5  C1  BES   501      43.417  11.409 189.547  1.00  0.00     0.238 C 
BRANCH   5   6
HETATM    6  C2  BES   501      42.021  11.826 189.895  1.00  0.00     0.123 C 
BRANCH   6   7
HETATM    7  C3  BES   501      42.008  13.300 190.177  1.00  0.00     0.199 C 
HETATM    8  O3  BES   501      41.893  14.047 189.231  1.00  0.00    -0.280 OA
HETATM    9  N1  BES   501      42.128  13.764 191.566  1.00  0.00    -0.248 NA
HETATM   10  H7  BES   501      43.048  13.354 191.928  1.00  0.00     0.131 HD
BRANCH   9  11
HETATM   11  C4  BES   501      42.139  15.169 191.974  1.00  0.00     0.169 C 
BRANCH  11  12
HETATM   12  C13 BES   501      41.130  15.385 193.106  1.00  0.00     0.089 C 
BRANCH  12  13
HETATM   13  C7  BES   501      39.892  16.141 192.588  1.00  0.00     0.031 A 
HETATM   14  C21 BES   501      39.369  16.139 191.139  1.00  0.00     0.143 A 
HETATM   15  N22 BES   501      38.115  17.030 191.085  1.00  0.00    -0.254 N 
HETATM   16  C23 BES   501      37.861  17.583 192.499  1.00  0.00     0.209 A 
HETATM   17  N24 BES   501      38.960  17.034 193.428  1.00  0.00    -0.348 N 
HETATM   18  C1  BES   501      39.100  17.323 194.915  1.00  0.00     0.157 C 
ENDBRANCH  12  13
ENDBRANCH  11  12
BRANCH  11  19
HETATM   19  C5  BES   501      43.507  15.475 192.491  1.00  0.00     0.192 C 
HETATM   20  O1  BES   501      43.641  16.300 193.436  1.00  0.00    -0.647 OA
HETATM   21  O4  BES   501      44.480  14.844 191.972  1.00  0.00    -0.647 OA
ENDBRANCH  11  19
ENDBRANCH   9  11
ENDBRANCH   6   7
ENDBRANCH   5   6
ENDBRANCH   1   5
TORSDOF 7
REMARK  9 active torsions:
REMARK  status: ('A' for Active; 'I' for Inactive)
REMARK    1  A    between atoms: C70_1  and  C1_2 
REMARK    2  A    between atoms: C70_1  and  N12_20 
REMARK    3  A    between atoms: C1_2  and  C2_3 
REMARK    4  A    between atoms: C2_3  and  C3_4 
REMARK    5  A    between atoms: C2_3  and  O5_17 
REMARK       I    between atoms: C3_4  and  N1_6 
REMARK    6  A    between atoms: N1_6  and  C4_7 
REMARK    7  A    between atoms: C4_7  and  C13_8 
REMARK    8  A    between atoms: C4_7  and  C5_10 
REMARK    9  A    between atoms: C13_8  and  C7_9 
ROOT
HETATM    1  C70 BES A 501      44.184  13.352 195.760  1.00  6.08     0.232 C 
ENDROOT
BRANCH   1   2
HETATM    2  C1  BES A 501      43.208  12.815 194.897  1.00  6.71     0.068 C 
BRANCH   2   3
HETATM    3  C2  BES A 501      43.593  11.618 194.084  1.00  9.09     0.205 C 
BRANCH   3   4
HETATM    4  C3  BES A 501      42.352  10.853 193.723  1.00  8.29     0.227 C 
HETATM    5  O3  BES A 501      42.493   9.726 193.306  1.00  7.85    -0.277 OA
HETATM    6  N1  BES A 501      41.040  11.494 193.896  1.00  8.97    -0.246 NA
HETATM    7  H7  BES A 501      41.076  12.387 193.306  1.00  8.27     0.131 HD
BRANCH   6   8
HETATM    8  C4  BES A 501      39.760  10.863 193.573  1.00 10.85     0.169 C 
BRANCH   8   9
HETATM    9  C13 BES A 501      38.720  11.240 194.633  1.00  8.22     0.089 C 
BRANCH   9  10
HETATM   10  C7  BES A 501      39.332  12.198 195.673  1.00 11.21     0.029 A 
HETATM   11  C21 BES A 501      39.080  13.714 195.765  1.00  0.00     0.143 A 
HETATM   12  N22 BES A 501      39.895  14.260 196.953  1.00  0.00    -0.254 N 
HETATM   13  C23 BES A 501      40.650  13.081 197.595  1.00  0.00     0.207 A 
HETATM   14  N24 BES A 501      40.301  11.806 196.804  1.00  0.00    -0.353 N 
HETATM   15  H13 BES A 501      40.668  10.821 197.005  1.00  8.23     0.166 HD
ENDBRANCH   9  10
ENDBRANCH   8   9
BRANCH   8  16
HETATM   16  C5  BES A 501      39.313  11.405 192.255  1.00 10.09     0.192 C 
HETATM   17  O1  BES A 501      39.024  10.603 191.323  1.00  5.58    -0.647 OA
HETATM   18  O4  BES A 501      39.200  12.665 192.151  1.00  5.29    -0.647 OA
ENDBRANCH   8  16
ENDBRANCH   6   8
ENDBRANCH   3   4
BRANCH   3  19
HETATM   19  O5  BES A 501      44.289  12.062 192.832  1.00  8.27    -0.387 OA
HETATM   20  H15 BES A 501      44.894  12.894 193.045  1.00  8.22     0.210 HD
ENDBRANCH   3  19
ENDBRANCH   2   3
ENDBRANCH   1   2
BRANCH   1  21
HETATM   21  N12 BES A 501      45.294  13.989 194.937  1.00  8.22    -0.079 N 
HETATM   22  H14 BES A 501      45.810  13.230 194.388  1.00  8.22     0.274 HD
HETATM   23  H15 BES A 501      45.980  14.487 195.589  1.00  8.22     0.274 HD
HETATM   24  H1  BES A 501      44.871  14.697 194.256  1.00  8.22     0.274 HD
ENDBRANCH   1  21
TORSDOF 9
ENDMDL
MODEL 9
REMARK VINA RESULT:    -1.703      6.043      8.974
REMARK INTER + INTRA:          -5.771
REMARK INTER:                  -3.592
REMARK INTRA:                  -2.179
REMARK UNBOUND:                -2.623
REMARK  7 active torsions:
REMARK  status: ('A' for Active; 'I' for Inactive)
REMARK    1  A    between atoms: N2_1  and  C1_2 
REMARK    2  A    between atoms: C1_2  and  C2_3 
REMARK    3  A    between atoms: C2_3  and  C3_4 
REMARK       I    between atoms: C3_4  and  N1_6 
REMARK    4  A    between atoms: N1_6  and  C4_7 
REMARK    5  A    between atoms: C4_7  and  C13_8 
REMARK    6  A    between atoms: C4_7  and  C5_10 
REMARK    7  A    between atoms: C13_8  and  C7_9 
ROOT
HETATM    1  N2  BES   501      42.654  15.859 192.992  1.00  0.00    -0.079 N 
HETATM    2  H1  BES   501      43.582  16.340 192.760  1.00  0.00     0.274 HD
HETATM    3  H2  BES   501      42.655  14.870 192.584  1.00  0.00     0.274 HD
HETATM    4  H1  BES   501      42.536  15.806 194.054  1.00  0.00     0.274 HD
ENDROOT
BRANCH   1   5
HETATM    5  C1  BES   501      41.539  16.632 192.410  1.00  0.00     0.238 C 
BRANCH   5   6
HETATM    6  C2  BES   501      40.233  16.397 193.104  1.00  0.00     0.123 C 
BRANCH   6   7
HETATM    7  C3  BES   501      40.414  15.321 194.135  1.00  0.00     0.199 C 
HETATM    8  O3  BES   501      40.760  15.665 195.243  1.00  0.00    -0.280 OA
HETATM    9  N1  BES   501      40.163  13.922 193.762  1.00  0.00    -0.248 NA
HETATM   10  H7  BES   501      40.816  13.722 192.938  1.00  0.00     0.131 HD
BRANCH   9  11
HETATM   11  C4  BES   501      40.313  12.782 194.667  1.00  0.00     0.169 C 
BRANCH  11  12
HETATM   12  C13 BES   501      38.951  12.421 195.269  1.00  0.00     0.089 C 
BRANCH  12  13
HETATM   13  C7  BES   501      38.888  12.838 196.750  1.00  0.00     0.031 A 
HETATM   14  C21 BES   501      38.269  14.138 197.298  1.00  0.00     0.143 A 
HETATM   15  N22 BES   501      38.432  14.133 198.829  1.00  0.00    -0.254 N 
HETATM   16  C23 BES   501      39.150  12.830 199.228  1.00  0.00     0.209 A 
HETATM   17  N24 BES   501      39.431  12.031 197.942  1.00  0.00    -0.348 N 
HETATM   18  C1  BES   501      40.126  10.680 197.864  1.00  0.00     0.157 C 
ENDBRANCH  12  13
ENDBRANCH  11  12
BRANCH  11  19
HETATM   19  C5  BES   501      40.796  11.626 193.855  1.00  0.00     0.192 C 
HETATM   20  O1  BES   501      40.726  10.461 194.333  1.00  0.00    -0.647 OA
HETATM   21  O4  BES   501      41.222  11.875 192.683  1.00  0.00    -0.647 OA
ENDBRANCH  11  19
ENDBRANCH   9  11
ENDBRANCH   6   7
ENDBRANCH   5   6
ENDBRANCH   1   5
TORSDOF 7
REMARK  9 active torsions:
REMARK  status: ('A' for Active; 'I' for Inactive)
REMARK    1  A    between atoms: C70_1  and  C1_2 
REMARK    2  A    between atoms: C70_1  and  N12_20 
REMARK    3  A    between atoms: C1_2  and  C2_3 
REMARK    4  A    between atoms: C2_3  and  C3_4 
REMARK    5  A    between atoms: C2_3  and  O5_17 
REMARK       I    between atoms: C3_4  and  N1_6 
REMARK    6  A    between atoms: N1_6  and  C4_7 
REMARK    7  A    between atoms: C4_7  and  C13_8 
REMARK    8  A    between atoms: C4_7  and  C5_10 
REMARK    9  A    between atoms: C13_8  and  C7_9 
ROOT
HETATM    1  C70 BES A 501      43.953  18.627 197.951  1.00  6.08     0.232 C 
ENDROOT
BRANCH   1   2
HETATM    2  C1  BES A 501      44.695  18.562 196.755  1.00  6.71     0.068 C 
BRANCH   2   3
HETATM    3  C2  BES A 501      44.231  17.595 195.710  1.00  9.09     0.205 C 
BRANCH   3   4
HETATM    4  C3  BES A 501      44.647  16.208 196.109  1.00  8.29     0.227 C 
HETATM    5  O3  BES A 501      45.765  16.068 196.553  1.00  7.85    -0.277 OA
HETATM    6  N1  BES A 501      43.693  15.101 195.951  1.00  8.97    -0.246 NA
HETATM    7  H7  BES A 501      43.429  15.095 194.914  1.00  8.27     0.131 HD
BRANCH   6   8
HETATM    8  C4  BES A 501      43.977  13.706 196.291  1.00 10.85     0.169 C 
BRANCH   8   9
HETATM    9  C13 BES A 501      42.851  13.153 197.169  1.00  8.22     0.089 C 
BRANCH   9  10
HETATM   10  C7  BES A 501      42.409  14.202 198.207  1.00 11.21     0.029 A 
HETATM   11  C21 BES A 501      42.703  14.159 199.718  1.00  0.00     0.143 A 
HETATM   12  N22 BES A 501      42.072  15.408 200.361  1.00  0.00    -0.254 N 
HETATM   13  C23 BES A 501      41.387  16.223 199.247  1.00  0.00     0.207 A 
HETATM   14  N24 BES A 501      41.596  15.476 197.915  1.00  0.00    -0.353 N 
HETATM   15  H13 BES A 501      41.239  15.789 196.957  1.00  8.23     0.166 HD
ENDBRANCH   9  10
ENDBRANCH   8   9
BRANCH   8  16
HETATM   16  C5  BES A 501      44.009  12.931 195.015  1.00 10.09     0.192 C 
HETATM   17  O1  BES A 501      43.950  13.548 193.915  1.00  5.58    -0.647 OA
HETATM   18  O4  BES A 501      44.143  11.672 195.102  1.00  5.29    -0.647 OA
ENDBRANCH   8  16
ENDBRANCH   6   8
ENDBRANCH   3   4
BRANCH   3  19
HETATM   19  O5  BES A 501      42.737  17.657 195.594  1.00  8.27    -0.387 OA
HETATM   20  H15 BES A 501      42.308  17.555 196.547  1.00  8.22     0.210 HD
ENDBRANCH   3  19
ENDBRANCH   2   3
ENDBRANCH   1   2
BRANCH   1  21
HETATM   21  N12 BES A 501      42.815  19.623 197.789  1.00  8.22    -0.079 N 
HETATM   22  H14 BES A 501      42.617  20.093 198.729  1.00  8.22     0.274 HD
HETATM   23  H15 BES A 501      41.938  19.112 197.453  1.00  8.22     0.274 HD
HETATM   24  H1  BES A 501      43.092  20.366 197.071  1.00  8.22     0.274 HD
ENDBRANCH   1  21
TORSDOF 9
ENDMDL
