MODEL 1
REMARK VINA RESULT:    -1.644      0.000      0.000
REMARK INTER + INTRA:          -5.437
REMARK INTER:                  -2.990
REMARK INTRA:                  -2.447
REMARK UNBOUND:                -2.447
REMARK  7 active torsions:
REMARK  status: ('A' for Active; 'I' for Inactive)
REMARK    1  A    between atoms: N2_1  and  C1_2 
REMARK    2  A    between atoms: C1_2  and  C2_3 
REMARK    3  A    between atoms: C2_3  and  C3_4 
REMARK       I    between atoms: C3_4  and  N1_6 
REMARK    4  A    between atoms: N1_6  and  C4_7 
REMARK    5  A    between atoms: C4_7  and  C13_8 
REMARK    6  A    between atoms: C4_7  and  C5_10 
REMARK    7  A    between atoms: C13_8  and  C7_9 
ROOT
HETATM    1  N2  BES   501      39.439  11.453 190.947  1.00  0.00    -0.079 N 
HETATM    2  H1  BES   501      38.874  10.545 190.929  1.00  0.00     0.274 HD
HETATM    3  H2  BES   501      39.135  12.077 190.133  1.00  0.00     0.274 HD
HETATM    4  H1  BES   501      39.265  11.963 191.871  1.00  0.00     0.274 HD
ENDROOT
BRANCH   1   5
HETATM    5  C1  BES   501      40.877  11.142 190.819  1.00  0.00     0.238 C 
BRANCH   5   6
HETATM    6  C2  BES   501      41.754  12.077 191.594  1.00  0.00     0.123 C 
BRANCH   6   7
HETATM    7  C3  BES   501      40.891  13.069 192.318  1.00  0.00     0.199 C 
HETATM    8  O3  BES   501      40.660  12.858 193.487  1.00  0.00    -0.280 OA
HETATM    9  N1  BES   501      40.378  14.237 191.589  1.00  0.00    -0.248 NA
HETATM   10  H7  BES   501      39.826  13.841 190.762  1.00  0.00     0.131 HD
BRANCH   9  11
HETATM   11  C4  BES   501      39.521  15.269 192.173  1.00  0.00     0.169 C 
BRANCH  11  12
HETATM   12  C13 BES   501      40.126  16.651 191.907  1.00  0.00     0.089 C 
BRANCH  12  13
HETATM   13  C7  BES   501      40.708  17.244 193.204  1.00  0.00     0.031 A 
HETATM   14  C21 BES   501      39.995  18.231 194.148  1.00  0.00     0.143 A 
HETATM   15  N22 BES   501      40.951  18.551 195.311  1.00  0.00    -0.254 N 
HETATM   16  C23 BES   501      42.255  17.763 195.088  1.00  0.00     0.209 A 
HETATM   17  N24 BES   501      42.104  16.955 193.785  1.00  0.00    -0.348 N 
HETATM   18  C1  BES   501      43.151  16.034 193.179  1.00  0.00     0.157 C 
ENDBRANCH  12  13
ENDBRANCH  11  12
BRANCH  11  19
HETATM   19  C5  BES   501      38.195  15.191 191.490  1.00  0.00     0.192 C 
HETATM   20  O1  BES   501      37.808  14.089 191.014  1.00  0.00    -0.647 OA
HETATM   21  O4  BES   501      37.491  16.248 191.462  1.00  0.00    -0.647 OA
ENDBRANCH  11  19
ENDBRANCH   9  11
ENDBRANCH   6   7
ENDBRANCH   5   6
ENDBRANCH   1   5
TORSDOF 7
REMARK  8 active torsions:
REMARK  status: ('A' for Active; 'I' for Inactive)
REMARK    1  A    between atoms: C70_1  and  C1_2 
REMARK    2  A    between atoms: C70_1  and  N12_19 
REMARK    3  A    between atoms: C1_2  and  C2_3 
REMARK    4  A    between atoms: C2_3  and  C3_4 
REMARK       I    between atoms: C3_4  and  N1_6 
REMARK    5  A    between atoms: N1_6  and  C4_7 
REMARK    6  A    between atoms: C4_7  and  C13_8 
REMARK    7  A    between atoms: C4_7  and  C5_10 
REMARK    8  A    between atoms: C13_8  and  C7_9 
ROOT
HETATM    1  C70 BES A 501      40.675   9.706 195.183  1.00  6.08     0.230 C 
ENDROOT
BRANCH   1   2
HETATM    2  C1  BES A 501      40.820  10.705 196.167  1.00  6.71     0.036 C 
BRANCH   2   3
HETATM    3  C2  BES A 501      39.912  10.637 197.354  1.00  9.09     0.098 C 
BRANCH   3   4
HETATM    4  C3  BES A 501      38.888  11.731 197.249  1.00  8.29     0.198 C 
HETATM    5  O3  BES A 501      38.076  11.822 198.143  1.00  7.85    -0.280 OA
HETATM    6  N1  BES A 501      38.919  12.632 196.088  1.00  8.97    -0.248 NA
HETATM    7  H7  BES A 501      38.833  11.998 195.230  1.00  8.27     0.131 HD
BRANCH   6   8
HETATM    8  C4  BES A 501      37.976  13.727 195.862  1.00 10.85     0.169 C 
BRANCH   8   9
HETATM    9  C13 BES A 501      38.747  15.030 195.634  1.00  8.22     0.089 C 
BRANCH   9  10
HETATM   10  C7  BES A 501      40.097  14.996 196.376  1.00 11.21     0.029 A 
HETATM   11  C21 BES A 501      40.403  15.668 197.728  1.00  0.00     0.143 A 
HETATM   12  N22 BES A 501      41.872  15.371 198.084  1.00  0.00    -0.254 N 
HETATM   13  C23 BES A 501      42.473  14.517 196.952  1.00  0.00     0.207 A 
HETATM   14  N24 BES A 501      41.375  14.286 195.896  1.00  0.00    -0.353 N 
HETATM   15  H13 BES A 501      41.483  13.729 194.989  1.00  8.23     0.166 HD
ENDBRANCH   9  10
ENDBRANCH   8   9
BRANCH   8  16
HETATM   16  C5  BES A 501      37.206  13.407 194.622  1.00 10.09     0.192 C 
HETATM   17  O1  BES A 501      37.472  12.350 193.985  1.00  5.58    -0.647 OA
HETATM   18  O4  BES A 501      36.277  14.207 194.291  1.00  5.29    -0.647 OA
ENDBRANCH   8  16
ENDBRANCH   6   8
ENDBRANCH   3   4
ENDBRANCH   2   3
ENDBRANCH   1   2
BRANCH   1  19
HETATM   19  N12 BES A 501      39.585  10.113 194.204  1.00  8.22    -0.079 N 
HETATM   20  H14 BES A 501      39.321  11.137 194.369  1.00  8.22     0.274 HD
HETATM   21  H15 BES A 501      38.725   9.495 194.350  1.00  8.22     0.274 HD
HETATM   22  H6  BES A 501      39.943   9.995 193.202  1.00  8.22     0.274 HD
ENDBRANCH   1  19
TORSDOF 8
ENDMDL
MODEL 2
REMARK VINA RESULT:    -1.640      3.299      6.292
REMARK INTER + INTRA:          -5.429
REMARK INTER:                  -3.256
REMARK INTRA:                  -2.173
REMARK UNBOUND:                -2.447
REMARK  7 active torsions:
REMARK  status: ('A' for Active; 'I' for Inactive)
REMARK    1  A    between atoms: N2_1  and  C1_2 
REMARK    2  A    between atoms: C1_2  and  C2_3 
REMARK    3  A    between atoms: C2_3  and  C3_4 
REMARK       I    between atoms: C3_4  and  N1_6 
REMARK    4  A    between atoms: N1_6  and  C4_7 
REMARK    5  A    between atoms: C4_7  and  C13_8 
REMARK    6  A    between atoms: C4_7  and  C5_10 
REMARK    7  A    between atoms: C13_8  and  C7_9 
ROOT
HETATM    1  N2  BES   501      37.148  19.367 193.966  1.00  0.00    -0.079 N 
HETATM    2  H1  BES   501      37.582  18.866 193.126  1.00  0.00     0.274 HD
HETATM    3  H2  BES   501      37.227  20.425 193.830  1.00  0.00     0.274 HD
HETATM    4  H1  BES   501      36.117  19.094 194.050  1.00  0.00     0.274 HD
ENDROOT
BRANCH   1   5
HETATM    5  C1  BES   501      37.863  18.974 195.197  1.00  0.00     0.238 C 
BRANCH   5   6
HETATM    6  C2  BES   501      37.750  17.512 195.504  1.00  0.00     0.123 C 
BRANCH   6   7
HETATM    7  C3  BES   501      37.034  16.830 194.374  1.00  0.00     0.199 C 
HETATM    8  O3  BES   501      35.854  16.600 194.521  1.00  0.00    -0.280 OA
HETATM    9  N1  BES   501      37.782  16.481 193.159  1.00  0.00    -0.248 NA
HETATM   10  H7  BES   501      38.586  15.854 193.485  1.00  0.00     0.131 HD
BRANCH   9  11
HETATM   11  C4  BES   501      37.207  15.808 191.994  1.00  0.00     0.169 C 
BRANCH  11  12
HETATM   12  C13 BES   501      36.699  16.852 190.995  1.00  0.00     0.089 C 
BRANCH  12  13
HETATM   13  C7  BES   501      35.162  16.943 191.044  1.00  0.00     0.031 A 
HETATM   14  C21 BES   501      34.343  18.056 191.726  1.00  0.00     0.143 A 
HETATM   15  N22 BES   501      32.850  17.738 191.525  1.00  0.00    -0.254 N 
HETATM   16  C23 BES   501      32.745  16.429 190.719  1.00  0.00     0.209 A 
HETATM   17  N24 BES   501      34.175  15.939 190.422  1.00  0.00    -0.348 N 
HETATM   18  C1  BES   501      34.546  14.682 189.651  1.00  0.00     0.157 C 
ENDBRANCH  12  13
ENDBRANCH  11  12
BRANCH  11  19
HETATM   19  C5  BES   501      38.299  15.021 191.347  1.00  0.00     0.192 C 
HETATM   20  O1  BES   501      39.397  14.873 191.950  1.00  0.00    -0.647 OA
HETATM   21  O4  BES   501      38.046  14.493 190.219  1.00  0.00    -0.647 OA
ENDBRANCH  11  19
ENDBRANCH   9  11
ENDBRANCH   6   7
ENDBRANCH   5   6
ENDBRANCH   1   5
TORSDOF 7
REMARK  8 active torsions:
REMARK  status: ('A' for Active; 'I' for Inactive)
REMARK    1  A    between atoms: C70_1  and  C1_2 
REMARK    2  A    between atoms: C70_1  and  N12_19 
REMARK    3  A    between atoms: C1_2  and  C2_3 
REMARK    4  A    between atoms: C2_3  and  C3_4 
REMARK       I    between atoms: C3_4  and  N1_6 
REMARK    5  A    between atoms: N1_6  and  C4_7 
REMARK    6  A    between atoms: C4_7  and  C13_8 
REMARK    7  A    between atoms: C4_7  and  C5_10 
REMARK    8  A    between atoms: C13_8  and  C7_9 
ROOT
HETATM    1  C70 BES A 501      40.482  13.323 194.792  1.00  6.08     0.230 C 
ENDROOT
BRANCH   1   2
HETATM    2  C1  BES A 501      41.364  14.415 194.916  1.00  6.71     0.036 C 
BRANCH   2   3
HETATM    3  C2  BES A 501      40.858  15.631 195.625  1.00  9.09     0.098 C 
BRANCH   3   4
HETATM    4  C3  BES A 501      41.285  16.854 194.865  1.00  8.29     0.198 C 
HETATM    5  O3  BES A 501      41.815  17.743 195.491  1.00  7.85    -0.280 OA
HETATM    6  N1  BES A 501      41.049  16.914 193.415  1.00  8.97    -0.248 NA
HETATM    7  H7  BES A 501      39.994  16.782 193.290  1.00  8.27     0.131 HD
BRANCH   6   8
HETATM    8  C4  BES A 501      41.406  18.048 192.563  1.00 10.85     0.169 C 
BRANCH   8   9
HETATM    9  C13 BES A 501      42.676  17.716 191.772  1.00  8.22     0.089 C 
BRANCH   9  10
HETATM   10  C7  BES A 501      42.971  16.205 191.833  1.00 11.21     0.029 A 
HETATM   11  C21 BES A 501      44.161  15.544 192.554  1.00  0.00     0.143 A 
HETATM   12  N22 BES A 501      44.053  14.022 192.351  1.00  0.00    -0.254 N 
HETATM   13  C23 BES A 501      42.798  13.741 191.504  1.00  0.00     0.207 A 
HETATM   14  N24 BES A 501      42.128  15.092 191.184  1.00  0.00    -0.353 N 
HETATM   15  H13 BES A 501      41.235  15.231 190.612  1.00  8.23     0.166 HD
ENDBRANCH   9  10
ENDBRANCH   8   9
BRANCH   8  16
HETATM   16  C5  BES A 501      40.286  18.254 191.597  1.00 10.09     0.192 C 
HETATM   17  O1  BES A 501      39.295  18.958 191.940  1.00  5.58    -0.647 OA
HETATM   18  O4  BES A 501      40.409  17.738 190.443  1.00  5.29    -0.647 OA
ENDBRANCH   8  16
ENDBRANCH   6   8
ENDBRANCH   3   4
ENDBRANCH   2   3
ENDBRANCH   1   2
BRANCH   1  19
HETATM   19  N12 BES A 501      39.050  13.833 194.720  1.00  8.22    -0.079 N 
HETATM   20  H14 BES A 501      38.709  13.796 193.707  1.00  8.22     0.274 HD
HETATM   21  H15 BES A 501      39.013  14.842 195.072  1.00  8.22     0.274 HD
HETATM   22  H6  BES A 501      38.422  13.219 195.331  1.00  8.22     0.274 HD
ENDBRANCH   1  19
TORSDOF 8
ENDMDL
MODEL 3
REMARK VINA RESULT:    -1.636      5.627      7.882
REMARK INTER + INTRA:          -5.423
REMARK INTER:                  -3.201
REMARK INTRA:                  -2.221
REMARK UNBOUND:                -2.447
REMARK  7 active torsions:
REMARK  status: ('A' for Active; 'I' for Inactive)
REMARK    1  A    between atoms: N2_1  and  C1_2 
REMARK    2  A    between atoms: C1_2  and  C2_3 
REMARK    3  A    between atoms: C2_3  and  C3_4 
REMARK       I    between atoms: C3_4  and  N1_6 
REMARK    4  A    between atoms: N1_6  and  C4_7 
REMARK    5  A    between atoms: C4_7  and  C13_8 
REMARK    6  A    between atoms: C4_7  and  C5_10 
REMARK    7  A    between atoms: C13_8  and  C7_9 
ROOT
HETATM    1  N2  BES   501      32.265  16.746 200.207  1.00  0.00    -0.079 N 
HETATM    2  H1  BES   501      32.670  15.866 200.663  1.00  0.00     0.274 HD
HETATM    3  H2  BES   501      31.580  17.214 200.883  1.00  0.00     0.274 HD
HETATM    4  H1  BES   501      33.060  17.425 199.979  1.00  0.00     0.274 HD
ENDROOT
BRANCH   1   5
HETATM    5  C1  BES   501      31.559  16.378 198.964  1.00  0.00     0.238 C 
BRANCH   5   6
HETATM    6  C2  BES   501      32.317  16.744 197.725  1.00  0.00     0.123 C 
BRANCH   6   7
HETATM    7  C3  BES   501      33.323  17.806 198.063  1.00  0.00     0.199 C 
HETATM    8  O3  BES   501      32.914  18.937 198.199  1.00  0.00    -0.280 OA
HETATM    9  N1  BES   501      34.735  17.431 198.216  1.00  0.00    -0.248 NA
HETATM   10  H7  BES   501      35.015  16.975 197.289  1.00  0.00     0.131 HD
BRANCH   9  11
HETATM   11  C4  BES   501      35.813  18.367 198.533  1.00  0.00     0.169 C 
BRANCH  11  12
HETATM   12  C13 BES   501      35.974  18.473 200.052  1.00  0.00     0.089 C 
BRANCH  12  13
HETATM   13  C7  BES   501      35.723  19.918 200.523  1.00  0.00     0.031 A 
HETATM   14  C21 BES   501      34.412  20.461 201.122  1.00  0.00     0.143 A 
HETATM   15  N22 BES   501      34.619  21.952 201.445  1.00  0.00    -0.254 N 
HETATM   16  C23 BES   501      36.057  22.331 201.046  1.00  0.00     0.209 A 
HETATM   17  N24 BES   501      36.739  21.074 200.476  1.00  0.00    -0.348 N 
HETATM   18  C1  BES   501      38.166  20.989 199.958  1.00  0.00     0.157 C 
ENDBRANCH  12  13
ENDBRANCH  11  12
BRANCH  11  19
HETATM   19  C5  BES   501      37.074  17.811 197.958  1.00  0.00     0.192 C 
HETATM   20  O1  BES   501      37.824  18.557 197.271  1.00  0.00    -0.647 OA
HETATM   21  O4  BES   501      37.355  16.602 198.233  1.00  0.00    -0.647 OA
ENDBRANCH  11  19
ENDBRANCH   9  11
ENDBRANCH   6   7
ENDBRANCH   5   6
ENDBRANCH   1   5
TORSDOF 7
REMARK  8 active torsions:
REMARK  status: ('A' for Active; 'I' for Inactive)
REMARK    1  A    between atoms: C70_1  and  C1_2 
REMARK    2  A    between atoms: C70_1  and  N12_19 
REMARK    3  A    between atoms: C1_2  and  C2_3 
REMARK    4  A    between atoms: C2_3  and  C3_4 
REMARK       I    between atoms: C3_4  and  N1_6 
REMARK    5  A    between atoms: N1_6  and  C4_7 
REMARK    6  A    between atoms: C4_7  and  C13_8 
REMARK    7  A    between atoms: C4_7  and  C5_10 
REMARK    8  A    between atoms: C13_8  and  C7_9 
ROOT
HETATM    1  C70 BES A 501      36.523  13.964 196.051  1.00  6.08     0.230 C 
ENDROOT
BRANCH   1   2
HETATM    2  C1  BES A 501      36.847  12.771 196.728  1.00  6.71     0.036 C 
BRANCH   2   3
HETATM    3  C2  BES A 501      38.012  12.809 197.667  1.00  9.09     0.098 C 
BRANCH   3   4
HETATM    4  C3  BES A 501      37.500  12.879 199.077  1.00  8.29     0.198 C 
HETATM    5  O3  BES A 501      37.426  11.841 199.696  1.00  7.85    -0.280 OA
HETATM    6  N1  BES A 501      37.122  14.185 199.637  1.00  8.97    -0.248 NA
HETATM    7  H7  BES A 501      36.372  14.574 198.980  1.00  8.27     0.131 HD
BRANCH   6   8
HETATM    8  C4  BES A 501      36.601  14.388 200.989  1.00 10.85     0.169 C 
BRANCH   8   9
HETATM    9  C13 BES A 501      37.448  15.439 201.714  1.00  8.22     0.089 C 
BRANCH   9  10
HETATM   10  C7  BES A 501      38.922  15.342 201.273  1.00 11.21     0.029 A 
HETATM   11  C21 BES A 501      40.003  14.457 201.919  1.00  0.00     0.143 A 
HETATM   12  N22 BES A 501      41.321  14.681 201.154  1.00  0.00    -0.254 N 
HETATM   13  C23 BES A 501      41.054  15.706 200.036  1.00  0.00     0.207 A 
HETATM   14  N24 BES A 501      39.570  16.114 200.109  1.00  0.00    -0.353 N 
HETATM   15  H13 BES A 501      39.077  16.811 199.464  1.00  8.23     0.166 HD
ENDBRANCH   9  10
ENDBRANCH   8   9
BRANCH   8  16
HETATM   16  C5  BES A 501      35.207  14.909 200.859  1.00 10.09     0.192 C 
HETATM   17  O1  BES A 501      34.635  15.404 201.870  1.00  5.58    -0.647 OA
HETATM   18  O4  BES A 501      34.676  14.869 199.707  1.00  5.29    -0.647 OA
ENDBRANCH   8  16
ENDBRANCH   6   8
ENDBRANCH   3   4
ENDBRANCH   2   3
ENDBRANCH   1   2
BRANCH   1  19
HETATM   19  N12 BES A 501      35.462  14.720 196.836  1.00  8.22    -0.079 N 
HETATM   20  H14 BES A 501      35.658  15.770 196.780  1.00  8.22     0.274 HD
HETATM   21  H15 BES A 501      35.483  14.408 197.858  1.00  8.22     0.274 HD
HETATM   22  H6  BES A 501      34.497  14.516 196.420  1.00  8.22     0.274 HD
ENDBRANCH   1  19
TORSDOF 8
ENDMDL
MODEL 4
REMARK VINA RESULT:    -1.621      3.345      5.633
REMARK INTER + INTRA:          -5.394
REMARK INTER:                  -3.237
REMARK INTRA:                  -2.158
REMARK UNBOUND:                -2.447
REMARK  7 active torsions:
REMARK  status: ('A' for Active; 'I' for Inactive)
REMARK    1  A    between atoms: N2_1  and  C1_2 
REMARK    2  A    between atoms: C1_2  and  C2_3 
REMARK    3  A    between atoms: C2_3  and  C3_4 
REMARK       I    between atoms: C3_4  and  N1_6 
REMARK    4  A    between atoms: N1_6  and  C4_7 
REMARK    5  A    between atoms: C4_7  and  C13_8 
REMARK    6  A    between atoms: C4_7  and  C5_10 
REMARK    7  A    between atoms: C13_8  and  C7_9 
ROOT
HETATM    1  N2  BES   501      44.522  10.022 195.667  1.00  0.00    -0.079 N 
HETATM    2  H1  BES   501      44.303  11.044 195.902  1.00  0.00     0.274 HD
HETATM    3  H2  BES   501      43.989   9.381 196.339  1.00  0.00     0.274 HD
HETATM    4  H1  BES   501      44.218   9.816 194.662  1.00  0.00     0.274 HD
ENDROOT
BRANCH   1   5
HETATM    5  C1  BES   501      45.972   9.785 195.803  1.00  0.00     0.238 C 
BRANCH   5   6
HETATM    6  C2  BES   501      46.658  10.798 196.667  1.00  0.00     0.123 C 
BRANCH   6   7
HETATM    7  C3  BES   501      45.671  11.863 197.049  1.00  0.00     0.199 C 
HETATM    8  O3  BES   501      45.002  11.673 198.039  1.00  0.00    -0.280 OA
HETATM    9  N1  BES   501      45.565  13.071 196.219  1.00  0.00    -0.248 NA
HETATM   10  H7  BES   501      45.332  12.724 195.233  1.00  0.00     0.131 HD
BRANCH   9  11
HETATM   11  C4  BES   501      44.639  14.174 196.474  1.00  0.00     0.169 C 
BRANCH  11  12
HETATM   12  C13 BES   501      45.247  15.128 197.508  1.00  0.00     0.089 C 
BRANCH  12  13
HETATM   13  C7  BES   501      44.297  15.301 198.707  1.00  0.00     0.031 A 
HETATM   14  C21 BES   501      44.225  14.387 199.945  1.00  0.00     0.143 A 
HETATM   15  N22 BES   501      43.134  14.940 200.881  1.00  0.00    -0.254 N 
HETATM   16  C23 BES   501      42.532  16.196 200.223  1.00  0.00     0.209 A 
HETATM   17  N24 BES   501      43.251  16.418 198.879  1.00  0.00    -0.348 N 
HETATM   18  C1  BES   501      42.976  17.544 197.895  1.00  0.00     0.157 C 
ENDBRANCH  12  13
ENDBRANCH  11  12
BRANCH  11  19
HETATM   19  C5  BES   501      44.460  14.916 195.190  1.00  0.00     0.192 C 
HETATM   20  O1  BES   501      45.346  14.829 194.297  1.00  0.00    -0.647 OA
HETATM   21  O4  BES   501      43.382  15.573 195.043  1.00  0.00    -0.647 OA
ENDBRANCH  11  19
ENDBRANCH   9  11
ENDBRANCH   6   7
ENDBRANCH   5   6
ENDBRANCH   1   5
TORSDOF 7
REMARK  8 active torsions:
REMARK  status: ('A' for Active; 'I' for Inactive)
REMARK    1  A    between atoms: C70_1  and  C1_2 
REMARK    2  A    between atoms: C70_1  and  N12_19 
REMARK    3  A    between atoms: C1_2  and  C2_3 
REMARK    4  A    between atoms: C2_3  and  C3_4 
REMARK       I    between atoms: C3_4  and  N1_6 
REMARK    5  A    between atoms: N1_6  and  C4_7 
REMARK    6  A    between atoms: C4_7  and  C13_8 
REMARK    7  A    between atoms: C4_7  and  C5_10 
REMARK    8  A    between atoms: C13_8  and  C7_9 
ROOT
HETATM    1  C70 BES A 501      42.676  14.148 191.806  1.00  6.08     0.230 C 
ENDROOT
BRANCH   1   2
HETATM    2  C1  BES A 501      42.148  12.913 192.231  1.00  6.71     0.036 C 
BRANCH   2   3
HETATM    3  C2  BES A 501      42.804  12.251 193.403  1.00  9.09     0.098 C 
BRANCH   3   4
HETATM    4  C3  BES A 501      41.880  12.325 194.585  1.00  8.29     0.198 C 
HETATM    5  O3  BES A 501      41.818  11.354 195.305  1.00  7.85    -0.280 OA
HETATM    6  N1  BES A 501      41.109  13.555 194.816  1.00  8.97    -0.248 NA
HETATM    7  H7  BES A 501      40.538  13.708 193.924  1.00  8.27     0.131 HD
BRANCH   6   8
HETATM    8  C4  BES A 501      40.170  13.750 195.921  1.00 10.85     0.169 C 
BRANCH   8   9
HETATM    9  C13 BES A 501      40.911  14.336 197.127  1.00  8.22     0.089 C 
BRANCH   9  10
HETATM   10  C7  BES A 501      41.050  13.281 198.241  1.00 11.21     0.029 A 
HETATM   11  C21 BES A 501      40.233  13.230 199.545  1.00  0.00     0.143 A 
HETATM   12  N22 BES A 501      40.708  12.010 200.356  1.00  0.00    -0.254 N 
HETATM   13  C23 BES A 501      41.819  11.308 199.553  1.00  0.00     0.207 A 
HETATM   14  N24 BES A 501      42.030  12.094 198.245  1.00  0.00    -0.353 N 
HETATM   15  H13 BES A 501      42.734  11.856 197.475  1.00  8.23     0.166 HD
ENDBRANCH   9  10
ENDBRANCH   8   9
BRANCH   8  16
HETATM   16  C5  BES A 501      39.144  14.737 195.468  1.00 10.09     0.192 C 
HETATM   17  O1  BES A 501      38.251  15.114 196.276  1.00  5.58    -0.647 OA
HETATM   18  O4  BES A 501      39.252  15.189 194.287  1.00  5.29    -0.647 OA
ENDBRANCH   8  16
ENDBRANCH   6   8
ENDBRANCH   3   4
ENDBRANCH   2   3
ENDBRANCH   1   2
BRANCH   1  19
HETATM   19  N12 BES A 501      41.885  15.283 192.438  1.00  8.22    -0.079 N 
HETATM   20  H14 BES A 501      42.552  16.073 192.712  1.00  8.22     0.274 HD
HETATM   21  H15 BES A 501      41.381  14.924 193.310  1.00  8.22     0.274 HD
HETATM   22  H6  BES A 501      41.166  15.650 191.737  1.00  8.22     0.274 HD
ENDBRANCH   1  19
TORSDOF 8
ENDMDL
MODEL 5
REMARK VINA RESULT:    -1.583      2.786      5.513
REMARK INTER + INTRA:          -5.325
REMARK INTER:                  -3.047
REMARK INTRA:                  -2.278
REMARK UNBOUND:                -2.447
REMARK  7 active torsions:
REMARK  status: ('A' for Active; 'I' for Inactive)
REMARK    1  A    between atoms: N2_1  and  C1_2 
REMARK    2  A    between atoms: C1_2  and  C2_3 
REMARK    3  A    between atoms: C2_3  and  C3_4 
REMARK       I    between atoms: C3_4  and  N1_6 
REMARK    4  A    between atoms: N1_6  and  C4_7 
REMARK    5  A    between atoms: C4_7  and  C13_8 
REMARK    6  A    between atoms: C4_7  and  C5_10 
REMARK    7  A    between atoms: C13_8  and  C7_9 
ROOT
HETATM    1  N2  BES   501      37.228  19.650 191.292  1.00  0.00    -0.079 N 
HETATM    2  H1  BES   501      37.777  20.508 190.963  1.00  0.00     0.274 HD
HETATM    3  H2  BES   501      37.599  18.778 190.793  1.00  0.00     0.274 HD
HETATM    4  H1  BES   501      37.349  19.533 192.349  1.00  0.00     0.274 HD
ENDROOT
BRANCH   1   5
HETATM    5  C1  BES   501      35.797  19.828 190.976  1.00  0.00     0.238 C 
BRANCH   5   6
HETATM    6  C2  BES   501      35.009  18.558 191.072  1.00  0.00     0.123 C 
BRANCH   6   7
HETATM    7  C3  BES   501      35.913  17.456 191.544  1.00  0.00     0.199 C 
HETATM    8  O3  BES   501      35.866  17.161 192.717  1.00  0.00    -0.280 OA
HETATM    9  N1  BES   501      36.797  16.793 190.576  1.00  0.00    -0.248 NA
HETATM   10  H7  BES   501      37.397  17.571 190.153  1.00  0.00     0.131 HD
BRANCH   9  11
HETATM   11  C4  BES   501      37.731  15.716 190.908  1.00  0.00     0.169 C 
BRANCH  11  12
HETATM   12  C13 BES   501      37.784  14.708 189.755  1.00  0.00     0.089 C 
BRANCH  12  13
HETATM   13  C7  BES   501      37.949  13.276 190.297  1.00  0.00     0.031 A 
HETATM   14  C21 BES   501      39.273  12.496 190.406  1.00  0.00     0.143 A 
HETATM   15  N22 BES   501      38.961  11.111 191.000  1.00  0.00    -0.254 N 
HETATM   16  C23 BES   501      37.445  11.034 191.260  1.00  0.00     0.209 A 
HETATM   17  N24 BES   501      36.820  12.372 190.825  1.00  0.00    -0.348 N 
HETATM   18  C1  BES   501      35.346  12.737 190.904  1.00  0.00     0.157 C 
ENDBRANCH  12  13
ENDBRANCH  11  12
BRANCH  11  19
HETATM   19  C5  BES   501      39.083  16.328 191.068  1.00  0.00     0.192 C 
HETATM   20  O1  BES   501      39.925  15.781 191.832  1.00  0.00    -0.647 OA
HETATM   21  O4  BES   501      39.338  17.365 190.378  1.00  0.00    -0.647 OA
ENDBRANCH  11  19
ENDBRANCH   9  11
ENDBRANCH   6   7
ENDBRANCH   5   6
ENDBRANCH   1   5
TORSDOF 7
REMARK  8 active torsions:
REMARK  status: ('A' for Active; 'I' for Inactive)
REMARK    1  A    between atoms: C70_1  and  C1_2 
REMARK    2  A    between atoms: C70_1  and  N12_19 
REMARK    3  A    between atoms: C1_2  and  C2_3 
REMARK    4  A    between atoms: C2_3  and  C3_4 
REMARK       I    between atoms: C3_4  and  N1_6 
REMARK    5  A    between atoms: N1_6  and  C4_7 
REMARK    6  A    between atoms: C4_7  and  C13_8 
REMARK    7  A    between atoms: C4_7  and  C5_10 
REMARK    8  A    between atoms: C13_8  and  C7_9 
ROOT
HETATM    1  C70 BES A 501      39.157  12.167 194.854  1.00  6.08     0.230 C 
ENDROOT
BRANCH   1   2
HETATM    2  C1  BES A 501      38.946  13.293 194.033  1.00  6.71     0.036 C 
BRANCH   2   3
HETATM    3  C2  BES A 501      37.567  13.876 194.007  1.00  9.09     0.098 C 
BRANCH   3   4
HETATM    4  C3  BES A 501      37.528  15.078 194.907  1.00  8.29     0.198 C 
HETATM    5  O3  BES A 501      36.832  15.012 195.895  1.00  7.85    -0.280 OA
HETATM    6  N1  BES A 501      38.327  16.261 194.556  1.00  8.97    -0.248 NA
HETATM    7  H7  BES A 501      37.998  16.552 193.580  1.00  8.27     0.131 HD
BRANCH   6   8
HETATM    8  C4  BES A 501      38.368  17.496 195.340  1.00 10.85     0.169 C 
BRANCH   8   9
HETATM    9  C13 BES A 501      39.626  17.507 196.215  1.00  8.22     0.089 C 
BRANCH   9  10
HETATM   10  C7  BES A 501      40.606  16.406 195.766  1.00 11.21     0.029 A 
HETATM   11  C21 BES A 501      41.027  15.178 196.595  1.00  0.00     0.143 A 
HETATM   12  N22 BES A 501      42.017  14.354 195.752  1.00  0.00    -0.254 N 
HETATM   13  C23 BES A 501      42.210  15.073 194.403  1.00  0.00     0.207 A 
HETATM   14  N24 BES A 501      41.336  16.342 194.412  1.00  0.00    -0.353 N 
HETATM   15  H13 BES A 501      41.252  17.053 193.618  1.00  8.23     0.166 HD
ENDBRANCH   9  10
ENDBRANCH   8   9
BRANCH   8  16
HETATM   16  C5  BES A 501      38.449  18.635 194.377  1.00 10.09     0.192 C 
HETATM   17  O1  BES A 501      39.388  18.667 193.534  1.00  5.58    -0.647 OA
HETATM   18  O4  BES A 501      37.527  19.506 194.427  1.00  5.29    -0.647 OA
ENDBRANCH   8  16
ENDBRANCH   6   8
ENDBRANCH   3   4
ENDBRANCH   2   3
ENDBRANCH   1   2
BRANCH   1  19
HETATM   19  N12 BES A 501      37.886  11.333 194.908  1.00  8.22    -0.079 N 
HETATM   20  H14 BES A 501      38.138  10.295 194.851  1.00  8.22     0.274 HD
HETATM   21  H15 BES A 501      37.254  11.593 194.086  1.00  8.22     0.274 HD
HETATM   22  H6  BES A 501      37.373  11.525 195.827  1.00  8.22     0.274 HD
ENDBRANCH   1  19
TORSDOF 8
ENDMDL
MODEL 6
REMARK VINA RESULT:    -1.576      4.562      6.955
REMARK INTER + INTRA:          -5.312
REMARK INTER:                  -2.855
REMARK INTRA:                  -2.456
REMARK UNBOUND:                -2.447
REMARK  7 active torsions:
REMARK  status: ('A' for Active; 'I' for Inactive)
REMARK    1  A    between atoms: N2_1  and  C1_2 
REMARK    2  A    between atoms: C1_2  and  C2_3 
REMARK    3  A    between atoms: C2_3  and  C3_4 
REMARK       I    between atoms: C3_4  and  N1_6 
REMARK    4  A    between atoms: N1_6  and  C4_7 
REMARK    5  A    between atoms: C4_7  and  C13_8 
REMARK    6  A    between atoms: C4_7  and  C5_10 
REMARK    7  A    between atoms: C13_8  and  C7_9 
ROOT
HETATM    1  N2  BES   501      40.577  14.552 196.761  1.00  0.00    -0.079 N 
HETATM    2  H1  BES   501      40.052  14.230 195.886  1.00  0.00     0.274 HD
HETATM    3  H2  BES   501      40.296  13.938 197.591  1.00  0.00     0.274 HD
HETATM    4  H1  BES   501      41.631  14.466 196.594  1.00  0.00     0.274 HD
ENDROOT
BRANCH   1   5
HETATM    5  C1  BES   501      40.238  15.959 197.050  1.00  0.00     0.238 C 
BRANCH   5   6
HETATM    6  C2  BES   501      41.433  16.799 197.381  1.00  0.00     0.123 C 
BRANCH   6   7
HETATM    7  C3  BES   501      42.673  16.080 196.936  1.00  0.00     0.199 C 
HETATM    8  O3  BES   501      43.062  16.286 195.808  1.00  0.00    -0.280 OA
HETATM    9  N1  BES   501      43.352  15.176 197.874  1.00  0.00    -0.248 NA
HETATM   10  H7  BES   501      42.618  14.451 198.158  1.00  0.00     0.131 HD
BRANCH   9  11
HETATM   11  C4  BES   501      44.559  14.410 197.563  1.00  0.00     0.169 C 
BRANCH  11  12
HETATM   12  C13 BES   501      45.595  14.608 198.674  1.00  0.00     0.089 C 
BRANCH  12  13
HETATM   13  C7  BES   501      45.838  16.108 198.925  1.00  0.00     0.031 A 
HETATM   14  C21 BES   501      46.500  17.094 197.943  1.00  0.00     0.143 A 
HETATM   15  N22 BES   501      46.534  18.479 198.613  1.00  0.00    -0.254 N 
HETATM   16  C23 BES   501      45.893  18.352 200.007  1.00  0.00     0.209 A 
HETATM   17  N24 BES   501      45.463  16.885 200.199  1.00  0.00    -0.348 N 
HETATM   18  C1  BES   501      44.787  16.307 201.432  1.00  0.00     0.157 C 
ENDBRANCH  12  13
ENDBRANCH  11  12
BRANCH  11  19
HETATM   19  C5  BES   501      44.176  12.967 197.520  1.00  0.00     0.192 C 
HETATM   20  O1  BES   501      44.915  12.113 198.083  1.00  0.00    -0.647 OA
HETATM   21  O4  BES   501      43.081  12.672 196.946  1.00  0.00    -0.647 OA
ENDBRANCH  11  19
ENDBRANCH   9  11
ENDBRANCH   6   7
ENDBRANCH   5   6
ENDBRANCH   1   5
TORSDOF 7
REMARK  8 active torsions:
REMARK  status: ('A' for Active; 'I' for Inactive)
REMARK    1  A    between atoms: C70_1  and  C1_2 
REMARK    2  A    between atoms: C70_1  and  N12_19 
REMARK    3  A    between atoms: C1_2  and  C2_3 
REMARK    4  A    between atoms: C2_3  and  C3_4 
REMARK       I    between atoms: C3_4  and  N1_6 
REMARK    5  A    between atoms: N1_6  and  C4_7 
REMARK    6  A    between atoms: C4_7  and  C13_8 
REMARK    7  A    between atoms: C4_7  and  C5_10 
REMARK    8  A    between atoms: C13_8  and  C7_9 
ROOT
HETATM    1  C70 BES A 501      41.385   9.226 197.045  1.00  6.08     0.230 C 
ENDROOT
BRANCH   1   2
HETATM    2  C1  BES A 501      42.697   9.202 197.559  1.00  6.71     0.036 C 
BRANCH   2   3
HETATM    3  C2  BES A 501      42.888   8.631 198.930  1.00  9.09     0.098 C 
BRANCH   3   4
HETATM    4  C3  BES A 501      42.356   9.604 199.942  1.00  8.29     0.198 C 
HETATM    5  O3  BES A 501      41.814   9.147 200.923  1.00  7.85    -0.280 OA
HETATM    6  N1  BES A 501      42.520  11.046 199.705  1.00  8.97    -0.248 NA
HETATM    7  H7  BES A 501      42.048  11.238 198.764  1.00  8.27     0.131 HD
BRANCH   6   8
HETATM    8  C4  BES A 501      42.039  12.094 200.606  1.00 10.85     0.169 C 
BRANCH   8   9
HETATM    9  C13 BES A 501      43.228  12.909 201.125  1.00  8.22     0.089 C 
BRANCH   9  10
HETATM   10  C7  BES A 501      43.769  12.301 202.433  1.00 11.21     0.029 A 
HETATM   11  C21 BES A 501      44.639  13.027 203.476  1.00  0.00     0.143 A 
HETATM   12  N22 BES A 501      44.943  12.036 204.614  1.00  0.00    -0.254 N 
HETATM   13  C23 BES A 501      44.262  10.697 204.275  1.00  0.00     0.207 A 
HETATM   14  N24 BES A 501      43.536  10.861 202.926  1.00  0.00    -0.353 N 
HETATM   15  H13 BES A 501      42.969  10.108 202.421  1.00  8.23     0.166 HD
ENDBRANCH   9  10
ENDBRANCH   8   9
BRANCH   8  16
HETATM   16  C5  BES A 501      41.155  12.998 199.810  1.00 10.09     0.192 C 
HETATM   17  O1  BES A 501      40.207  12.503 199.139  1.00  5.58    -0.647 OA
HETATM   18  O4  BES A 501      41.378  14.246 199.886  1.00  5.29    -0.647 OA
ENDBRANCH   8  16
ENDBRANCH   6   8
ENDBRANCH   3   4
ENDBRANCH   2   3
ENDBRANCH   1   2
BRANCH   1  19
HETATM   19  N12 BES A 501      40.937  10.669 196.864  1.00  8.22    -0.079 N 
HETATM   20  H14 BES A 501      40.865  10.892 195.821  1.00  8.22     0.274 HD
HETATM   21  H15 BES A 501      41.650  11.323 197.320  1.00  8.22     0.274 HD
HETATM   22  H6  BES A 501      39.981  10.805 197.325  1.00  8.22     0.274 HD
ENDBRANCH   1  19
TORSDOF 8
ENDMDL
MODEL 7
REMARK VINA RESULT:    -1.567      5.620      8.532
REMARK INTER + INTRA:          -5.297
REMARK INTER:                  -3.254
REMARK INTRA:                  -2.043
REMARK UNBOUND:                -2.447
REMARK  7 active torsions:
REMARK  status: ('A' for Active; 'I' for Inactive)
REMARK    1  A    between atoms: N2_1  and  C1_2 
REMARK    2  A    between atoms: C1_2  and  C2_3 
REMARK    3  A    between atoms: C2_3  and  C3_4 
REMARK       I    between atoms: C3_4  and  N1_6 
REMARK    4  A    between atoms: N1_6  and  C4_7 
REMARK    5  A    between atoms: C4_7  and  C13_8 
REMARK    6  A    between atoms: C4_7  and  C5_10 
REMARK    7  A    between atoms: C13_8  and  C7_9 
ROOT
HETATM    1  N2  BES   501      37.685  21.156 192.941  1.00  0.00    -0.079 N 
HETATM    2  H1  BES   501      36.647  20.980 192.752  1.00  0.00     0.274 HD
HETATM    3  H2  BES   501      37.926  20.836 193.933  1.00  0.00     0.274 HD
HETATM    4  H1  BES   501      38.273  20.606 192.236  1.00  0.00     0.274 HD
ENDROOT
BRANCH   1   5
HETATM    5  C1  BES   501      37.974  22.597 192.804  1.00  0.00     0.238 C 
BRANCH   5   6
HETATM    6  C2  BES   501      37.770  23.364 194.074  1.00  0.00     0.123 C 
BRANCH   6   7
HETATM    7  C3  BES   501      37.455  22.399 195.181  1.00  0.00     0.199 C 
HETATM    8  O3  BES   501      38.385  21.818 195.694  1.00  0.00    -0.280 OA
HETATM    9  N1  BES   501      36.057  22.210 195.590  1.00  0.00    -0.248 NA
HETATM   10  H7  BES   501      35.538  21.900 194.706  1.00  0.00     0.131 HD
BRANCH   9  11
HETATM   11  C4  BES   501      35.616  21.296 196.644  1.00  0.00     0.169 C 
BRANCH  11  12
HETATM   12  C13 BES   501      35.883  21.924 198.015  1.00  0.00     0.089 C 
BRANCH  12  13
HETATM   13  C7  BES   501      36.496  20.887 198.974  1.00  0.00     0.031 A 
HETATM   14  C21 BES   501      37.998  20.604 199.162  1.00  0.00     0.143 A 
HETATM   15  N22 BES   501      38.144  19.492 200.217  1.00  0.00    -0.254 N 
HETATM   16  C23 BES   501      36.733  19.088 200.683  1.00  0.00     0.209 A 
HETATM   17  N24 BES   501      35.715  19.951 199.914  1.00  0.00    -0.348 N 
HETATM   18  C1  BES   501      34.202  19.888 200.059  1.00  0.00     0.157 C 
ENDBRANCH  12  13
ENDBRANCH  11  12
BRANCH  11  19
HETATM   19  C5  BES   501      34.144  21.105 196.485  1.00  0.00     0.192 C 
HETATM   20  O1  BES   501      33.672  19.936 196.440  1.00  0.00    -0.647 OA
HETATM   21  O4  BES   501      33.422  22.150 196.448  1.00  0.00    -0.647 OA
ENDBRANCH  11  19
ENDBRANCH   9  11
ENDBRANCH   6   7
ENDBRANCH   5   6
ENDBRANCH   1   5
TORSDOF 7
REMARK  8 active torsions:
REMARK  status: ('A' for Active; 'I' for Inactive)
REMARK    1  A    between atoms: C70_1  and  C1_2 
REMARK    2  A    between atoms: C70_1  and  N12_19 
REMARK    3  A    between atoms: C1_2  and  C2_3 
REMARK    4  A    between atoms: C2_3  and  C3_4 
REMARK       I    between atoms: C3_4  and  N1_6 
REMARK    5  A    between atoms: N1_6  and  C4_7 
REMARK    6  A    between atoms: C4_7  and  C13_8 
REMARK    7  A    between atoms: C4_7  and  C5_10 
REMARK    8  A    between atoms: C13_8  and  C7_9 
ROOT
HETATM    1  C70 BES A 501      36.966  16.687 197.803  1.00  6.08     0.230 C 
ENDROOT
BRANCH   1   2
HETATM    2  C1  BES A 501      36.581  17.764 196.980  1.00  6.71     0.036 C 
BRANCH   2   3
HETATM    3  C2  BES A 501      37.630  18.367 196.100  1.00  9.09     0.098 C 
BRANCH   3   4
HETATM    4  C3  BES A 501      37.143  18.352 194.679  1.00  8.29     0.198 C 
HETATM    5  O3  BES A 501      37.959  18.128 193.813  1.00  7.85    -0.280 OA
HETATM    6  N1  BES A 501      35.720  18.600 194.407  1.00  8.97    -0.248 NA
HETATM    7  H7  BES A 501      35.510  19.560 194.832  1.00  8.27     0.131 HD
BRANCH   6   8
HETATM    8  C4  BES A 501      35.123  18.623 193.072  1.00 10.85     0.169 C 
BRANCH   8   9
HETATM    9  C13 BES A 501      34.253  17.378 192.877  1.00  8.22     0.089 C 
BRANCH   9  10
HETATM   10  C7  BES A 501      34.031  16.658 194.221  1.00 11.21     0.029 A 
HETATM   11  C21 BES A 501      34.599  15.281 194.614  1.00  0.00     0.143 A 
HETATM   12  N22 BES A 501      34.122  14.961 196.043  1.00  0.00    -0.254 N 
HETATM   13  C23 BES A 501      33.258  16.139 196.532  1.00  0.00     0.207 A 
HETATM   14  N24 BES A 501      33.202  17.188 195.405  1.00  0.00    -0.353 N 
HETATM   15  H13 BES A 501      32.680  18.121 195.439  1.00  8.23     0.166 HD
ENDBRANCH   9  10
ENDBRANCH   8   9
BRANCH   8  16
HETATM   16  C5  BES A 501      34.247  19.831 192.993  1.00 10.09     0.192 C 
HETATM   17  O1  BES A 501      32.996  19.683 192.905  1.00  5.58    -0.647 OA
HETATM   18  O4  BES A 501      34.812  20.966 193.066  1.00  5.29    -0.647 OA
ENDBRANCH   8  16
ENDBRANCH   6   8
ENDBRANCH   3   4
ENDBRANCH   2   3
ENDBRANCH   1   2
BRANCH   1  19
HETATM   19  N12 BES A 501      37.545  15.574 196.943  1.00  8.22    -0.079 N 
HETATM   20  H14 BES A 501      38.486  15.264 197.347  1.00  8.22     0.274 HD
HETATM   21  H15 BES A 501      37.686  15.930 195.945  1.00  8.22     0.274 HD
HETATM   22  H6  BES A 501      36.871  14.743 196.934  1.00  8.22     0.274 HD
ENDBRANCH   1  19
TORSDOF 8
ENDMDL
MODEL 8
REMARK VINA RESULT:    -1.561      4.982      8.517
REMARK INTER + INTRA:          -5.286
REMARK INTER:                  -3.339
REMARK INTRA:                  -1.947
REMARK UNBOUND:                -2.447
REMARK  7 active torsions:
REMARK  status: ('A' for Active; 'I' for Inactive)
REMARK    1  A    between atoms: N2_1  and  C1_2 
REMARK    2  A    between atoms: C1_2  and  C2_3 
REMARK    3  A    between atoms: C2_3  and  C3_4 
REMARK       I    between atoms: C3_4  and  N1_6 
REMARK    4  A    between atoms: N1_6  and  C4_7 
REMARK    5  A    between atoms: C4_7  and  C13_8 
REMARK    6  A    between atoms: C4_7  and  C5_10 
REMARK    7  A    between atoms: C13_8  and  C7_9 
ROOT
HETATM    1  N2  BES   501      40.615  19.011 200.381  1.00  0.00    -0.079 N 
HETATM    2  H1  BES   501      40.205  18.294 201.062  1.00  0.00     0.274 HD
HETATM    3  H2  BES   501      39.825  19.450 199.809  1.00  0.00     0.274 HD
HETATM    4  H1  BES   501      41.123  19.774 200.932  1.00  0.00     0.274 HD
ENDROOT
BRANCH   1   5
HETATM    5  C1  BES   501      41.567  18.340 199.474  1.00  0.00     0.238 C 
BRANCH   5   6
HETATM    6  C2  BES   501      40.905  17.411 198.504  1.00  0.00     0.123 C 
BRANCH   6   7
HETATM    7  C3  BES   501      39.505  17.135 198.971  1.00  0.00     0.199 C 
HETATM    8  O3  BES   501      39.360  16.292 199.829  1.00  0.00    -0.280 OA
HETATM    9  N1  BES   501      38.391  17.890 198.381  1.00  0.00    -0.248 NA
HETATM   10  H7  BES   501      38.444  17.706 197.328  1.00  0.00     0.131 HD
BRANCH   9  11
HETATM   11  C4  BES   501      36.984  17.709 198.739  1.00  0.00     0.169 C 
BRANCH  11  12
HETATM   12  C13 BES   501      36.600  18.708 199.835  1.00  0.00     0.089 C 
BRANCH  12  13
HETATM   13  C7  BES   501      36.502  18.001 201.200  1.00  0.00     0.031 A 
HETATM   14  C21 BES   501      37.555  18.050 202.323  1.00  0.00     0.143 A 
HETATM   15  N22 BES   501      37.037  17.200 203.497  1.00  0.00    -0.254 N 
HETATM   16  C23 BES   501      35.664  16.625 203.101  1.00  0.00     0.209 A 
HETATM   17  N24 BES   501      35.334  17.121 201.681  1.00  0.00    -0.348 N 
HETATM   18  C1  BES   501      34.075  16.797 200.892  1.00  0.00     0.157 C 
ENDBRANCH  12  13
ENDBRANCH  11  12
BRANCH  11  19
HETATM   19  C5  BES   501      36.170  18.002 197.522  1.00  0.00     0.192 C 
HETATM   20  O1  BES   501      36.734  18.034 196.393  1.00  0.00    -0.647 OA
HETATM   21  O4  BES   501      34.920  18.163 197.682  1.00  0.00    -0.647 OA
ENDBRANCH  11  19
ENDBRANCH   9  11
ENDBRANCH   6   7
ENDBRANCH   5   6
ENDBRANCH   1   5
TORSDOF 7
REMARK  8 active torsions:
REMARK  status: ('A' for Active; 'I' for Inactive)
REMARK    1  A    between atoms: C70_1  and  C1_2 
REMARK    2  A    between atoms: C70_1  and  N12_19 
REMARK    3  A    between atoms: C1_2  and  C2_3 
REMARK    4  A    between atoms: C2_3  and  C3_4 
REMARK       I    between atoms: C3_4  and  N1_6 
REMARK    5  A    between atoms: N1_6  and  C4_7 
REMARK    6  A    between atoms: C4_7  and  C13_8 
REMARK    7  A    between atoms: C4_7  and  C5_10 
REMARK    8  A    between atoms: C13_8  and  C7_9 
ROOT
HETATM    1  C70 BES A 501      38.409  15.741 194.437  1.00  6.08     0.230 C 
ENDROOT
BRANCH   1   2
HETATM    2  C1  BES A 501      39.134  16.886 194.050  1.00  6.71     0.036 C 
BRANCH   2   3
HETATM    3  C2  BES A 501      40.378  17.204 194.819  1.00  9.09     0.098 C 
BRANCH   3   4
HETATM    4  C3  BES A 501      40.454  18.689 195.033  1.00  8.29     0.198 C 
HETATM    5  O3  BES A 501      41.411  19.270 194.572  1.00  7.85    -0.280 OA
HETATM    6  N1  BES A 501      39.378  19.361 195.774  1.00  8.97    -0.248 NA
HETATM    7  H7  BES A 501      39.341  18.878 196.729  1.00  8.27     0.131 HD
BRANCH   6   8
HETATM    8  C4  BES A 501      39.337  20.796 196.059  1.00 10.85     0.169 C 
BRANCH   8   9
HETATM    9  C13 BES A 501      37.884  21.280 196.052  1.00  8.22     0.089 C 
BRANCH   9  10
HETATM   10  C7  BES A 501      37.264  21.108 194.652  1.00 11.21     0.029 A 
HETATM   11  C21 BES A 501      36.964  22.239 193.650  1.00  0.00     0.143 A 
HETATM   12  N22 BES A 501      36.351  21.606 192.388  1.00  0.00    -0.254 N 
HETATM   13  C23 BES A 501      36.272  20.083 192.609  1.00  0.00     0.207 A 
HETATM   14  N24 BES A 501      36.837  19.776 194.009  1.00  0.00    -0.353 N 
HETATM   15  H13 BES A 501      36.918  18.807 194.455  1.00  8.23     0.166 HD
ENDBRANCH   9  10
ENDBRANCH   8   9
BRANCH   8  16
HETATM   16  C5  BES A 501      39.898  20.997 197.429  1.00 10.09     0.192 C 
HETATM   17  O1  BES A 501      41.090  21.392 197.557  1.00  5.58    -0.647 OA
HETATM   18  O4  BES A 501      39.118  20.801 198.412  1.00  5.29    -0.647 OA
ENDBRANCH   8  16
ENDBRANCH   6   8
ENDBRANCH   3   4
ENDBRANCH   2   3
ENDBRANCH   1   2
BRANCH   1  19
HETATM   19  N12 BES A 501      38.439  15.609 195.952  1.00  8.22    -0.079 N 
HETATM   20  H14 BES A 501      39.401  15.902 196.316  1.00  8.22     0.274 HD
HETATM   21  H15 BES A 501      38.249  14.593 196.225  1.00  8.22     0.274 HD
HETATM   22  H6  BES A 501      37.689  16.240 196.379  1.00  8.22     0.274 HD
ENDBRANCH   1  19
TORSDOF 8
ENDMDL
MODEL 9
REMARK VINA RESULT:    -1.554      5.202      7.672
REMARK INTER + INTRA:          -5.273
REMARK INTER:                  -2.982
REMARK INTRA:                  -2.291
REMARK UNBOUND:                -2.447
REMARK  7 active torsions:
REMARK  status: ('A' for Active; 'I' for Inactive)
REMARK    1  A    between atoms: N2_1  and  C1_2 
REMARK    2  A    between atoms: C1_2  and  C2_3 
REMARK    3  A    between atoms: C2_3  and  C3_4 
REMARK       I    between atoms: C3_4  and  N1_6 
REMARK    4  A    between atoms: N1_6  and  C4_7 
REMARK    5  A    between atoms: C4_7  and  C13_8 
REMARK    6  A    between atoms: C4_7  and  C5_10 
REMARK    7  A    between atoms: C13_8  and  C7_9 
ROOT
HETATM    1  N2  BES   501      44.757  17.510 191.412  1.00  0.00    -0.079 N 
HETATM    2  H1  BES   501      44.929  17.172 190.411  1.00  0.00     0.274 HD
HETATM    3  H2  BES   501      44.702  18.578 191.423  1.00  0.00     0.274 HD
HETATM    4  H1  BES   501      43.835  17.102 191.771  1.00  0.00     0.274 HD
ENDROOT
BRANCH   1   5
HETATM    5  C1  BES   501      45.864  17.064 192.280  1.00  0.00     0.238 C 
BRANCH   5   6
HETATM    6  C2  BES   501      46.298  18.104 193.265  1.00  0.00     0.123 C 
BRANCH   6   7
HETATM    7  C3  BES   501      45.827  19.450 192.794  1.00  0.00     0.199 C 
HETATM    8  O3  BES   501      46.536  20.047 192.015  1.00  0.00    -0.280 OA
HETATM    9  N1  BES   501      44.545  19.972 193.287  1.00  0.00    -0.248 NA
HETATM   10  H7  BES   501      44.633  19.993 194.353  1.00  0.00     0.131 HD
BRANCH   9  11
HETATM   11  C4  BES   501      43.979  21.269 192.915  1.00  0.00     0.169 C 
BRANCH  11  12
HETATM   12  C13 BES   501      43.043  21.097 191.714  1.00  0.00     0.089 C 
BRANCH  12  13
HETATM   13  C7  BES   501      43.714  21.615 190.428  1.00  0.00     0.031 A 
HETATM   14  C21 BES   501      44.359  20.749 189.330  1.00  0.00     0.143 A 
HETATM   15  N22 BES   501      44.902  21.689 188.240  1.00  0.00    -0.254 N 
HETATM   16  C23 BES   501      44.593  23.138 188.662  1.00  0.00     0.209 A 
HETATM   17  N24 BES   501      43.859  23.091 190.015  1.00  0.00    -0.348 N 
HETATM   18  C1  BES   501      43.364  24.293 190.805  1.00  0.00     0.157 C 
ENDBRANCH  12  13
ENDBRANCH  11  12
BRANCH  11  19
HETATM   19  C5  BES   501      43.178  21.758 194.076  1.00  0.00     0.192 C 
HETATM   20  O1  BES   501      42.739  22.941 194.072  1.00  0.00    -0.647 OA
HETATM   21  O4  BES   501      42.936  20.928 195.008  1.00  0.00    -0.647 OA
ENDBRANCH  11  19
ENDBRANCH   9  11
ENDBRANCH   6   7
ENDBRANCH   5   6
ENDBRANCH   1   5
TORSDOF 7
REMARK  8 active torsions:
REMARK  status: ('A' for Active; 'I' for Inactive)
REMARK    1  A    between atoms: C70_1  and  C1_2 
REMARK    2  A    between atoms: C70_1  and  N12_19 
REMARK    3  A    between atoms: C1_2  and  C2_3 
REMARK    4  A    between atoms: C2_3  and  C3_4 
REMARK       I    between atoms: C3_4  and  N1_6 
REMARK    5  A    between atoms: N1_6  and  C4_7 
REMARK    6  A    between atoms: C4_7  and  C13_8 
REMARK    7  A    between atoms: C4_7  and  C5_10 
REMARK    8  A    between atoms: C13_8  and  C7_9 
ROOT
HETATM    1  C70 BES A 501      43.837  18.755 197.692  1.00  6.08     0.230 C 
ENDROOT
BRANCH   1   2
HETATM    2  C1  BES A 501      42.796  17.839 197.946  1.00  6.71     0.036 C 
BRANCH   2   3
HETATM    3  C2  BES A 501      41.393  18.356 197.877  1.00  9.09     0.098 C 
BRANCH   3   4
HETATM    4  C3  BES A 501      40.783  17.938 196.570  1.00  8.29     0.198 C 
HETATM    5  O3  BES A 501      40.054  16.972 196.579  1.00  7.85    -0.280 OA
HETATM    6  N1  BES A 501      41.087  18.711 195.357  1.00  8.97    -0.248 NA
HETATM    7  H7  BES A 501      42.153  18.688 195.262  1.00  8.27     0.131 HD
BRANCH   6   8
HETATM    8  C4  BES A 501      40.567  18.404 194.025  1.00 10.85     0.169 C 
BRANCH   8   9
HETATM    9  C13 BES A 501      40.026  19.682 193.377  1.00  8.22     0.089 C 
BRANCH   9  10
HETATM   10  C7  BES A 501      39.211  20.501 194.397  1.00 11.21     0.029 A 
HETATM   11  C21 BES A 501      39.362  22.009 194.673  1.00  0.00     0.143 A 
HETATM   12  N22 BES A 501      38.347  22.396 195.765  1.00  0.00    -0.254 N 
HETATM   13  C23 BES A 501      37.569  21.127 196.163  1.00  0.00     0.207 A 
HETATM   14  N24 BES A 501      38.104  19.956 195.317  1.00  0.00    -0.353 N 
HETATM   15  H13 BES A 501      37.765  18.942 195.361  1.00  8.23     0.166 HD
ENDBRANCH   9  10
ENDBRANCH   8   9
BRANCH   8  16
HETATM   16  C5  BES A 501      41.709  17.902 193.203  1.00 10.09     0.192 C 
HETATM   17  O1  BES A 501      41.583  17.830 191.949  1.00  5.58    -0.647 OA
HETATM   18  O4  BES A 501      42.783  17.610 193.814  1.00  5.29    -0.647 OA
ENDBRANCH   8  16
ENDBRANCH   6   8
ENDBRANCH   3   4
ENDBRANCH   2   3
ENDBRANCH   1   2
BRANCH   1  19
HETATM   19  N12 BES A 501      44.240  18.673 196.228  1.00  8.22    -0.079 N 
HETATM   20  H14 BES A 501      44.568  17.680 196.004  1.00  8.22     0.274 HD
HETATM   21  H15 BES A 501      45.034  19.363 196.037  1.00  8.22     0.274 HD
HETATM   22  H6  BES A 501      43.400  18.918 195.613  1.00  8.22     0.274 HD
ENDBRANCH   1  19
TORSDOF 8
ENDMDL
