MODEL 1
REMARK VINA RESULT:     0.000      0.000      0.000
REMARK INTER + INTRA:          -2.166
REMARK INTER:                   0.000
REMARK INTRA:                  -2.166
REMARK UNBOUND:                -2.166
REMARK  10 active torsions:
REMARK  status: ('A' for Active; 'I' for Inactive)
REMARK    1  A    between atoms: O1_1  and  C12_12 
REMARK    2  A    between atoms: O2_2  and  C13_13 
REMARK    3  A    between atoms: O3_3  and  C18_18 
REMARK    4  A    between atoms: O4_4  and  C19_19 
REMARK    5  A    between atoms: C7_7  and  C16_16 
REMARK    6  A    between atoms: C8_8  and  C17_17 
REMARK    7  A    between atoms: C9_9  and  C21_21 
REMARK    8  A    between atoms: C9_9  and  C20_20 
REMARK    9  A    between atoms: C20_20  and  C24_24 
REMARK   10  A    between atoms: C21_21  and  C25_25 
ROOT
HETATM    1  O1          0      38.722  17.716 194.771  1.00  0.00    -0.353 OA
HETATM    2  C26         0      39.215  17.068 195.946  1.00  0.00     0.210 C 
ENDROOT
BRANCH   1   3
HETATM    3  C12         0      38.691  19.120 194.921  1.00  0.00     0.102 A 
HETATM    4  C18         0      39.481  19.856 194.144  1.00  0.00     0.099 A 
HETATM    5  C22         0      39.473  21.322 194.276  1.00  0.00     0.040 A 
HETATM    6  C14         0      38.677  21.924 195.168  1.00  0.00     0.014 A 
HETATM    7  C7          0      37.789  21.129 196.043  1.00  0.00    -0.033 A 
HETATM    8  C10         0      37.799  19.791 195.921  1.00  0.00     0.051 A 
BRANCH   4   9
HETATM    9  O3          0      40.315  19.221 193.208  1.00  0.00    -0.358 OA
HETATM   10  H40         0      41.211  19.066 193.600  1.00  0.00     0.217 HD
ENDBRANCH   4   9
BRANCH   7  11
HETATM   11  C16         0      36.871  21.805 197.072  1.00  0.00     0.015 C 
HETATM   12  C24         0      35.578  21.462 197.273  1.00  0.00     0.051 C 
BRANCH  12  13
HETATM   13  C20         0      34.708  22.182 198.324  1.00  0.00     0.156 C 
HETATM   14  O5          0      33.668  22.741 197.956  1.00  0.00    -0.293 OA
BRANCH  13  15
HETATM   15  C9          0      35.117  22.219 199.850  1.00  0.00     0.165 C 
BRANCH  15  16
HETATM   16  C21         0      35.495  20.818 200.479  1.00  0.00     0.156 C 
HETATM   17  O6          0      34.630  20.158 201.066  1.00  0.00    -0.293 OA
BRANCH  16  18
HETATM   18  C25         0      36.925  20.250 200.379  1.00  0.00     0.051 C 
HETATM   19  C17         0      37.197  19.149 199.640  1.00  0.00     0.015 C 
BRANCH  19  20
HETATM   20  C8          0      38.598  18.534 199.500  1.00  0.00    -0.033 A 
HETATM   21  C15         0      38.863  17.136 199.897  1.00  0.00     0.014 A 
HETATM   22  C23         0      40.089  16.611 199.768  1.00  0.00     0.040 A 
HETATM   23  C19         0      41.198  17.415 199.230  1.00  0.00     0.099 A 
HETATM   24  C13         0      40.982  18.676 198.867  1.00  0.00     0.102 A 
HETATM   25  C11         0      39.611  19.266 199.009  1.00  0.00     0.051 A 
BRANCH  23  26
HETATM   26  O4          0      42.486  16.868 199.095  1.00  0.00    -0.358 OA
HETATM   27  H41         0      43.137  17.395 199.622  1.00  0.00     0.217 HD
ENDBRANCH  23  26
BRANCH  24  28
HETATM   28  O2          0      42.067  19.421 198.354  1.00  0.00    -0.353 OA
HETATM   29  C27         0      41.722  20.090 197.139  1.00  0.00     0.210 C 
ENDBRANCH  24  28
ENDBRANCH  19  20
ENDBRANCH  16  18
ENDBRANCH  15  16
ENDBRANCH  13  15
ENDBRANCH  12  13
ENDBRANCH   7  11
ENDBRANCH   1   3
TORSDOF 10
ENDMDL
MODEL 2
REMARK VINA RESULT:     0.000      3.302      6.963
REMARK INTER + INTRA:          -2.165
REMARK INTER:                   0.000
REMARK INTRA:                  -2.165
REMARK UNBOUND:                -2.166
REMARK  10 active torsions:
REMARK  status: ('A' for Active; 'I' for Inactive)
REMARK    1  A    between atoms: O1_1  and  C12_12 
REMARK    2  A    between atoms: O2_2  and  C13_13 
REMARK    3  A    between atoms: O3_3  and  C18_18 
REMARK    4  A    between atoms: O4_4  and  C19_19 
REMARK    5  A    between atoms: C7_7  and  C16_16 
REMARK    6  A    between atoms: C8_8  and  C17_17 
REMARK    7  A    between atoms: C9_9  and  C21_21 
REMARK    8  A    between atoms: C9_9  and  C20_20 
REMARK    9  A    between atoms: C20_20  and  C24_24 
REMARK   10  A    between atoms: C21_21  and  C25_25 
ROOT
HETATM    1  O1          0      38.991  19.999 199.462  1.00  0.00    -0.353 OA
HETATM    2  C26         0      37.878  19.761 200.326  1.00  0.00     0.210 C 
ENDROOT
BRANCH   1   3
HETATM    3  C12         0      39.219  18.912 198.591  1.00  0.00     0.102 A 
HETATM    4  C18         0      39.360  19.162 197.292  1.00  0.00     0.099 A 
HETATM    5  C22         0      39.599  18.051 196.357  1.00  0.00     0.040 A 
HETATM    6  C14         0      39.678  16.790 196.800  1.00  0.00     0.014 A 
HETATM    7  C7          0      39.526  16.485 198.238  1.00  0.00    -0.033 A 
HETATM    8  C10         0      39.308  17.501 199.089  1.00  0.00     0.051 A 
BRANCH   4   9
HETATM    9  O3          0      39.276  20.487 196.830  1.00  0.00    -0.358 OA
HETATM   10  H40         0      38.693  21.020 197.428  1.00  0.00     0.217 HD
ENDBRANCH   4   9
BRANCH   7  11
HETATM   11  C16         0      39.614  15.044 198.761  1.00  0.00     0.015 C 
HETATM   12  C24         0      40.511  14.627 199.684  1.00  0.00     0.051 C 
BRANCH  12  13
HETATM   13  C20         0      40.548  13.163 200.168  1.00  0.00     0.156 C 
HETATM   14  O5          0      40.890  12.280 199.373  1.00  0.00    -0.293 OA
BRANCH  13  15
HETATM   15  C9          0      40.159  12.772 201.649  1.00  0.00     0.165 C 
BRANCH  15  16
HETATM   16  C21         0      38.616  12.531 201.897  1.00  0.00     0.156 C 
HETATM   17  O6          0      38.242  11.503 202.475  1.00  0.00    -0.293 OA
BRANCH  16  18
HETATM   18  C25         0      37.556  13.551 201.432  1.00  0.00     0.051 C 
HETATM   19  C17         0      37.580  14.836 201.856  1.00  0.00     0.015 C 
BRANCH  19  20
HETATM   20  C8          0      36.555  15.899 201.431  1.00  0.00    -0.033 A 
HETATM   21  C15         0      35.958  16.824 202.416  1.00  0.00     0.014 A 
HETATM   22  C23         0      35.066  17.747 202.032  1.00  0.00     0.040 A 
HETATM   23  C19         0      34.661  17.860 200.622  1.00  0.00     0.099 A 
HETATM   24  C13         0      35.186  17.037 199.718  1.00  0.00     0.102 A 
HETATM   25  C11         0      36.184  16.003 200.144  1.00  0.00     0.051 A 
BRANCH  23  26
HETATM   26  O4          0      33.725  18.827 200.216  1.00  0.00    -0.358 OA
HETATM   27  H41         0      34.145  19.724 200.206  1.00  0.00     0.217 HD
ENDBRANCH  23  26
BRANCH  24  28
HETATM   28  O2          0      34.777  17.171 198.373  1.00  0.00    -0.353 OA
HETATM   29  C27         0      35.862  17.553 197.524  1.00  0.00     0.210 C 
ENDBRANCH  24  28
ENDBRANCH  19  20
ENDBRANCH  16  18
ENDBRANCH  15  16
ENDBRANCH  13  15
ENDBRANCH  12  13
ENDBRANCH   7  11
ENDBRANCH   1   3
TORSDOF 10
ENDMDL
MODEL 3
REMARK VINA RESULT:     0.001      2.996      5.298
REMARK INTER + INTRA:          -2.165
REMARK INTER:                   0.000
REMARK INTRA:                  -2.165
REMARK UNBOUND:                -2.166
REMARK  10 active torsions:
REMARK  status: ('A' for Active; 'I' for Inactive)
REMARK    1  A    between atoms: O1_1  and  C12_12 
REMARK    2  A    between atoms: O2_2  and  C13_13 
REMARK    3  A    between atoms: O3_3  and  C18_18 
REMARK    4  A    between atoms: O4_4  and  C19_19 
REMARK    5  A    between atoms: C7_7  and  C16_16 
REMARK    6  A    between atoms: C8_8  and  C17_17 
REMARK    7  A    between atoms: C9_9  and  C21_21 
REMARK    8  A    between atoms: C9_9  and  C20_20 
REMARK    9  A    between atoms: C20_20  and  C24_24 
REMARK   10  A    between atoms: C21_21  and  C25_25 
ROOT
HETATM    1  O1          0      41.550  19.731 196.769  1.00  0.00    -0.353 OA
HETATM    2  C26         0      40.159  19.403 196.777  1.00  0.00     0.210 C 
ENDROOT
BRANCH   1   3
HETATM    3  C12         0      42.170  19.413 197.997  1.00  0.00     0.102 A 
HETATM    4  C18         0      43.312  18.731 197.971  1.00  0.00     0.099 A 
HETATM    5  C22         0      43.983  18.383 199.233  1.00  0.00     0.040 A 
HETATM    6  C14         0      43.458  18.748 200.410  1.00  0.00     0.014 A 
HETATM    7  C7          0      42.191  19.507 200.467  1.00  0.00    -0.033 A 
HETATM    8  C10         0      41.580  19.823 199.313  1.00  0.00     0.051 A 
BRANCH   4   9
HETATM    9  O3          0      43.859  18.350 196.734  1.00  0.00    -0.358 OA
HETATM   10  H40         0      44.722  18.813 196.585  1.00  0.00     0.217 HD
ENDBRANCH   4   9
BRANCH   7  11
HETATM   11  C16         0      41.577  19.931 201.809  1.00  0.00     0.015 C 
HETATM   12  C24         0      41.321  21.215 202.151  1.00  0.00     0.051 C 
BRANCH  12  13
HETATM   13  C20         0      40.702  21.576 203.517  1.00  0.00     0.156 C 
HETATM   14  O5          0      41.368  21.389 204.543  1.00  0.00    -0.293 OA
BRANCH  13  15
HETATM   15  C9          0      39.244  22.175 203.631  1.00  0.00     0.165 C 
BRANCH  15  16
HETATM   16  C21         0      38.081  21.105 203.688  1.00  0.00     0.156 C 
HETATM   17  O6          0      37.219  21.185 204.571  1.00  0.00    -0.293 OA
BRANCH  16  18
HETATM   18  C25         0      37.993  19.955 202.664  1.00  0.00     0.051 C 
HETATM   19  C17         0      37.903  20.199 201.336  1.00  0.00     0.015 C 
BRANCH  19  20
HETATM   20  C8          0      37.813  19.101 200.265  1.00  0.00    -0.033 A 
HETATM   21  C15         0      36.858  19.202 199.143  1.00  0.00     0.014 A 
HETATM   22  C23         0      36.790  18.237 198.216  1.00  0.00     0.040 A 
HETATM   23  C19         0      37.663  17.056 198.295  1.00  0.00     0.099 A 
HETATM   24  C13         0      38.531  16.943 199.297  1.00  0.00     0.102 A 
HETATM   25  C11         0      38.610  18.021 200.336  1.00  0.00     0.051 A 
BRANCH  23  26
HETATM   26  O4          0      37.594  16.041 197.324  1.00  0.00    -0.358 OA
HETATM   27  H41         0      37.142  15.244 197.697  1.00  0.00     0.217 HD
ENDBRANCH  23  26
BRANCH  24  28
HETATM   28  O2          0      39.355  15.798 199.345  1.00  0.00    -0.353 OA
HETATM   29  C27         0      40.738  16.134 199.204  1.00  0.00     0.210 C 
ENDBRANCH  24  28
ENDBRANCH  19  20
ENDBRANCH  16  18
ENDBRANCH  15  16
ENDBRANCH  13  15
ENDBRANCH  12  13
ENDBRANCH   7  11
ENDBRANCH   1   3
TORSDOF 10
ENDMDL
MODEL 4
REMARK VINA RESULT:     0.001      6.570      8.678
REMARK INTER + INTRA:          -2.165
REMARK INTER:                   0.000
REMARK INTRA:                  -2.165
REMARK UNBOUND:                -2.166
REMARK  10 active torsions:
REMARK  status: ('A' for Active; 'I' for Inactive)
REMARK    1  A    between atoms: O1_1  and  C12_12 
REMARK    2  A    between atoms: O2_2  and  C13_13 
REMARK    3  A    between atoms: O3_3  and  C18_18 
REMARK    4  A    between atoms: O4_4  and  C19_19 
REMARK    5  A    between atoms: C7_7  and  C16_16 
REMARK    6  A    between atoms: C8_8  and  C17_17 
REMARK    7  A    between atoms: C9_9  and  C21_21 
REMARK    8  A    between atoms: C9_9  and  C20_20 
REMARK    9  A    between atoms: C20_20  and  C24_24 
REMARK   10  A    between atoms: C21_21  and  C25_25 
ROOT
HETATM    1  O1          0      35.067  17.207 194.335  1.00  0.00    -0.353 OA
HETATM    2  C26         0      34.821  18.143 195.386  1.00  0.00     0.210 C 
ENDROOT
BRANCH   1   3
HETATM    3  C12         0      33.893  16.521 193.958  1.00  0.00     0.102 A 
HETATM    4  C18         0      33.421  16.704 192.728  1.00  0.00     0.099 A 
HETATM    5  C22         0      32.198  16.004 192.304  1.00  0.00     0.040 A 
HETATM    6  C14         0      31.555  15.182 193.143  1.00  0.00     0.014 A 
HETATM    7  C7          0      32.058  14.962 194.515  1.00  0.00    -0.033 A 
HETATM    8  C10         0      33.174  15.602 194.900  1.00  0.00     0.051 A 
BRANCH   4   9
HETATM    9  O3          0      34.098  17.567 191.850  1.00  0.00    -0.358 OA
HETATM   10  H40         0      33.521  18.337 191.615  1.00  0.00     0.217 HD
ENDBRANCH   4   9
BRANCH   7  11
HETATM   11  C16         0      31.330  14.023 195.489  1.00  0.00     0.015 C 
HETATM   12  C24         0      31.956  13.121 196.280  1.00  0.00     0.051 C 
BRANCH  12  13
HETATM   13  C20         0      31.167  12.205 197.238  1.00  0.00     0.156 C 
HETATM   14  O5          0      31.276  10.979 197.118  1.00  0.00    -0.293 OA
BRANCH  13  15
HETATM   15  C9          0      30.226  12.799 198.361  1.00  0.00     0.165 C 
BRANCH  15  16
HETATM   16  C21         0      30.884  13.916 199.266  1.00  0.00     0.156 C 
HETATM   17  O6          0      31.413  13.601 200.339  1.00  0.00    -0.293 OA
BRANCH  16  18
HETATM   18  C25         0      30.881  15.400 198.844  1.00  0.00     0.051 C 
HETATM   19  C17         0      32.027  16.043 198.520  1.00  0.00     0.015 C 
BRANCH  19  20
HETATM   20  C8          0      32.093  17.517 198.092  1.00  0.00    -0.033 A 
HETATM   21  C15         0      32.904  18.497 198.843  1.00  0.00     0.014 A 
HETATM   22  C23         0      32.953  19.779 198.458  1.00  0.00     0.040 A 
HETATM   23  C19         0      32.201  20.240 197.281  1.00  0.00     0.099 A 
HETATM   24  C13         0      31.463  19.375 196.590  1.00  0.00     0.102 A 
HETATM   25  C11         0      31.406  17.939 197.017  1.00  0.00     0.051 A 
BRANCH  23  26
HETATM   26  O4          0      32.249  21.585 196.876  1.00  0.00    -0.358 OA
HETATM   27  H41         0      31.474  22.080 197.242  1.00  0.00     0.217 HD
ENDBRANCH  23  26
BRANCH  24  28
HETATM   28  O2          0      30.753  19.849 195.465  1.00  0.00    -0.353 OA
HETATM   29  C27         0      30.918  18.991 194.334  1.00  0.00     0.210 C 
ENDBRANCH  24  28
ENDBRANCH  19  20
ENDBRANCH  16  18
ENDBRANCH  15  16
ENDBRANCH  13  15
ENDBRANCH  12  13
ENDBRANCH   7  11
ENDBRANCH   1   3
TORSDOF 10
ENDMDL
MODEL 5
REMARK VINA RESULT:     0.001      4.758      8.239
REMARK INTER + INTRA:          -2.165
REMARK INTER:                   0.000
REMARK INTRA:                  -2.165
REMARK UNBOUND:                -2.166
REMARK  10 active torsions:
REMARK  status: ('A' for Active; 'I' for Inactive)
REMARK    1  A    between atoms: O1_1  and  C12_12 
REMARK    2  A    between atoms: O2_2  and  C13_13 
REMARK    3  A    between atoms: O3_3  and  C18_18 
REMARK    4  A    between atoms: O4_4  and  C19_19 
REMARK    5  A    between atoms: C7_7  and  C16_16 
REMARK    6  A    between atoms: C8_8  and  C17_17 
REMARK    7  A    between atoms: C9_9  and  C21_21 
REMARK    8  A    between atoms: C9_9  and  C20_20 
REMARK    9  A    between atoms: C20_20  and  C24_24 
REMARK   10  A    between atoms: C21_21  and  C25_25 
ROOT
HETATM    1  O1          0      37.357  19.182 195.535  1.00  0.00    -0.353 OA
HETATM    2  C26         0      35.988  18.977 195.891  1.00  0.00     0.210 C 
ENDROOT
BRANCH   1   3
HETATM    3  C12         0      37.675  18.571 194.303  1.00  0.00     0.102 A 
HETATM    4  C18         0      38.044  19.349 193.289  1.00  0.00     0.099 A 
HETATM    5  C22         0      38.381  18.743 191.991  1.00  0.00     0.040 A 
HETATM    6  C14         0      38.323  17.417 191.819  1.00  0.00     0.014 A 
HETATM    7  C7          0      37.916  16.531 192.930  1.00  0.00    -0.033 A 
HETATM    8  C10         0      37.609  17.085 194.113  1.00  0.00     0.051 A 
BRANCH   4   9
HETATM    9  O3          0      38.104  20.741 193.472  1.00  0.00    -0.358 OA
HETATM   10  H40         0      37.216  21.145 193.307  1.00  0.00     0.217 HD
ENDBRANCH   4   9
BRANCH   7  11
HETATM   11  C16         0      37.844  15.007 192.747  1.00  0.00     0.015 C 
HETATM   12  C24         0      38.319  14.114 193.647  1.00  0.00     0.051 C 
BRANCH  12  13
HETATM   13  C20         0      38.216  12.594 193.404  1.00  0.00     0.156 C 
HETATM   14  O5          0      39.253  11.921 193.385  1.00  0.00    -0.293 OA
BRANCH  13  15
HETATM   15  C9          0      36.821  11.886 193.179  1.00  0.00     0.165 C 
BRANCH  15  16
HETATM   16  C21         0      35.709  12.238 194.247  1.00  0.00     0.156 C 
HETATM   17  O6          0      35.551  11.505 195.231  1.00  0.00    -0.293 OA
BRANCH  16  18
HETATM   18  C25         0      34.809  13.481 194.094  1.00  0.00     0.051 C 
HETATM   19  C17         0      34.898  14.527 194.949  1.00  0.00     0.015 C 
BRANCH  19  20
HETATM   20  C8          0      34.032  15.792 194.850  1.00  0.00    -0.033 A 
HETATM   21  C15         0      33.161  16.213 195.968  1.00  0.00     0.014 A 
HETATM   22  C23         0      32.412  17.319 195.869  1.00  0.00     0.040 A 
HETATM   23  C19         0      32.437  18.138 194.648  1.00  0.00     0.099 A 
HETATM   24  C13         0      33.213  17.778 193.628  1.00  0.00     0.102 A 
HETATM   25  C11         0      34.053  16.541 193.735  1.00  0.00     0.051 A 
BRANCH  23  26
HETATM   26  O4          0      31.652  19.299 194.541  1.00  0.00    -0.358 OA
HETATM   27  H41         0      30.738  19.124 194.879  1.00  0.00     0.217 HD
ENDBRANCH  23  26
BRANCH  24  28
HETATM   28  O2          0      33.215  18.585 192.470  1.00  0.00    -0.353 OA
HETATM   29  C27         0      34.544  18.888 192.037  1.00  0.00     0.210 C 
ENDBRANCH  24  28
ENDBRANCH  19  20
ENDBRANCH  16  18
ENDBRANCH  15  16
ENDBRANCH  13  15
ENDBRANCH  12  13
ENDBRANCH   7  11
ENDBRANCH   1   3
TORSDOF 10
ENDMDL
MODEL 6
REMARK VINA RESULT:     0.001      5.751      9.183
REMARK INTER + INTRA:          -2.164
REMARK INTER:                   0.000
REMARK INTRA:                  -2.164
REMARK UNBOUND:                -2.166
REMARK  10 active torsions:
REMARK  status: ('A' for Active; 'I' for Inactive)
REMARK    1  A    between atoms: O1_1  and  C12_12 
REMARK    2  A    between atoms: O2_2  and  C13_13 
REMARK    3  A    between atoms: O3_3  and  C18_18 
REMARK    4  A    between atoms: O4_4  and  C19_19 
REMARK    5  A    between atoms: C7_7  and  C16_16 
REMARK    6  A    between atoms: C8_8  and  C17_17 
REMARK    7  A    between atoms: C9_9  and  C21_21 
REMARK    8  A    between atoms: C9_9  and  C20_20 
REMARK    9  A    between atoms: C20_20  and  C24_24 
REMARK   10  A    between atoms: C21_21  and  C25_25 
ROOT
HETATM    1  O1          0      37.864  19.375 192.266  1.00  0.00    -0.353 OA
HETATM    2  C26         0      37.421  18.440 193.252  1.00  0.00     0.210 C 
ENDROOT
BRANCH   1   3
HETATM    3  C12         0      38.220  18.735 191.060  1.00  0.00     0.102 A 
HETATM    4  C18         0      37.519  19.014 189.965  1.00  0.00     0.099 A 
HETATM    5  C22         0      37.864  18.364 188.691  1.00  0.00     0.040 A 
HETATM    6  C14         0      38.879  17.493 188.621  1.00  0.00     0.014 A 
HETATM    7  C7          0      39.675  17.166 189.822  1.00  0.00    -0.033 A 
HETATM    8  C10         0      39.358  17.761 190.984  1.00  0.00     0.051 A 
BRANCH   4   9
HETATM    9  O3          0      36.454  19.928 190.042  1.00  0.00    -0.358 OA
HETATM   10  H40         0      36.219  20.100 190.988  1.00  0.00     0.217 HD
ENDBRANCH   4   9
BRANCH   7  11
HETATM   11  C16         0      40.842  16.169 189.757  1.00  0.00     0.015 C 
HETATM   12  C24         0      42.042  16.370 190.348  1.00  0.00     0.051 C 
BRANCH  12  13
HETATM   13  C20         0      43.175  15.328 190.245  1.00  0.00     0.156 C 
HETATM   14  O5          0      44.255  15.668 189.745  1.00  0.00    -0.293 OA
BRANCH  13  15
HETATM   15  C9          0      42.985  13.847 190.761  1.00  0.00     0.165 C 
BRANCH  15  16
HETATM   16  C21         0      42.391  13.714 192.220  1.00  0.00     0.156 C 
HETATM   17  O6          0      43.158  13.603 193.185  1.00  0.00    -0.293 OA
BRANCH  16  18
HETATM   18  C25         0      40.870  13.720 192.475  1.00  0.00     0.051 C 
HETATM   19  C17         0      40.269  14.737 193.134  1.00  0.00     0.015 C 
BRANCH  19  20
HETATM   20  C8          0      38.761  14.803 193.420  1.00  0.00    -0.033 A 
HETATM   21  C15         0      38.246  14.891 194.802  1.00  0.00     0.014 A 
HETATM   22  C23         0      36.928  14.949 195.037  1.00  0.00     0.040 A 
HETATM   23  C19         0      35.965  14.924 193.926  1.00  0.00     0.099 A 
HETATM   24  C13         0      36.406  14.845 192.673  1.00  0.00     0.102 A 
HETATM   25  C11         0      37.879  14.780 192.406  1.00  0.00     0.051 A 
BRANCH  23  26
HETATM   26  O4          0      34.582  14.984 194.169  1.00  0.00    -0.358 OA
HETATM   27  H41         0      34.370  15.760 194.745  1.00  0.00     0.217 HD
ENDBRANCH  23  26
BRANCH  24  28
HETATM   28  O2          0      35.456  14.823 191.628  1.00  0.00    -0.353 OA
HETATM   29  C27         0      35.790  15.747 190.589  1.00  0.00     0.210 C 
ENDBRANCH  24  28
ENDBRANCH  19  20
ENDBRANCH  16  18
ENDBRANCH  15  16
ENDBRANCH  13  15
ENDBRANCH  12  13
ENDBRANCH   7  11
ENDBRANCH   1   3
TORSDOF 10
ENDMDL
MODEL 7
REMARK VINA RESULT:     0.001      4.815      7.720
REMARK INTER + INTRA:          -2.164
REMARK INTER:                   0.000
REMARK INTRA:                  -2.164
REMARK UNBOUND:                -2.166
REMARK  10 active torsions:
REMARK  status: ('A' for Active; 'I' for Inactive)
REMARK    1  A    between atoms: O1_1  and  C12_12 
REMARK    2  A    between atoms: O2_2  and  C13_13 
REMARK    3  A    between atoms: O3_3  and  C18_18 
REMARK    4  A    between atoms: O4_4  and  C19_19 
REMARK    5  A    between atoms: C7_7  and  C16_16 
REMARK    6  A    between atoms: C8_8  and  C17_17 
REMARK    7  A    between atoms: C9_9  and  C21_21 
REMARK    8  A    between atoms: C9_9  and  C20_20 
REMARK    9  A    between atoms: C20_20  and  C24_24 
REMARK   10  A    between atoms: C21_21  and  C25_25 
ROOT
HETATM    1  O1          0      43.236  13.924 194.112  1.00  0.00    -0.353 OA
HETATM    2  C26         0      41.840  14.190 194.258  1.00  0.00     0.210 C 
ENDROOT
BRANCH   1   3
HETATM    3  C12         0      44.023  14.840 194.843  1.00  0.00     0.102 A 
HETATM    4  C18         0      44.771  14.377 195.840  1.00  0.00     0.099 A 
HETATM    5  C22         0      45.602  15.307 196.622  1.00  0.00     0.040 A 
HETATM    6  C14         0      45.616  16.616 196.338  1.00  0.00     0.014 A 
HETATM    7  C7          0      44.795  17.156 195.234  1.00  0.00    -0.033 A 
HETATM    8  C10         0      44.037  16.305 194.523  1.00  0.00     0.051 A 
BRANCH   4   9
HETATM    9  O3          0      44.754  13.003 196.136  1.00  0.00    -0.358 OA
HETATM   10  H40         0      44.353  12.498 195.385  1.00  0.00     0.217 HD
ENDBRANCH   4   9
BRANCH   7  11
HETATM   11  C16         0      44.800  18.654 194.897  1.00  0.00     0.015 C 
HETATM   12  C24         0      44.873  19.146 193.639  1.00  0.00     0.051 C 
BRANCH  12  13
HETATM   13  C20         0      44.874  20.665 193.367  1.00  0.00     0.156 C 
HETATM   14  O5          0      45.830  21.162 192.759  1.00  0.00    -0.293 OA
BRANCH  13  15
HETATM   15  C9          0      43.687  21.591 193.848  1.00  0.00     0.165 C 
BRANCH  15  16
HETATM   16  C21         0      42.240  21.078 193.470  1.00  0.00     0.156 C 
HETATM   17  O6          0      41.698  21.482 192.434  1.00  0.00    -0.293 OA
BRANCH  16  18
HETATM   18  C25         0      41.479  20.081 194.368  1.00  0.00     0.051 C 
HETATM   19  C17         0      41.215  18.820 193.954  1.00  0.00     0.015 C 
BRANCH  19  20
HETATM   20  C8          0      40.463  17.779 194.798  1.00  0.00    -0.033 A 
HETATM   21  C15         0      39.218  17.151 194.309  1.00  0.00     0.014 A 
HETATM   22  C23         0      38.573  16.244 195.054  1.00  0.00     0.040 A 
HETATM   23  C19         0      39.087  15.855 196.377  1.00  0.00     0.099 A 
HETATM   24  C13         0      40.206  16.408 196.838  1.00  0.00     0.102 A 
HETATM   25  C11         0      40.931  17.423 196.006  1.00  0.00     0.051 A 
BRANCH  23  26
HETATM   26  O4          0      38.412  14.905 197.162  1.00  0.00    -0.358 OA
HETATM   27  H41         0      39.058  14.406 197.723  1.00  0.00     0.217 HD
ENDBRANCH  23  26
BRANCH  24  28
HETATM   28  O2          0      40.674  16.014 198.110  1.00  0.00    -0.353 OA
HETATM   29  C27         0      42.059  15.661 198.080  1.00  0.00     0.210 C 
ENDBRANCH  24  28
ENDBRANCH  19  20
ENDBRANCH  16  18
ENDBRANCH  15  16
ENDBRANCH  13  15
ENDBRANCH  12  13
ENDBRANCH   7  11
ENDBRANCH   1   3
TORSDOF 10
ENDMDL
MODEL 8
REMARK VINA RESULT:     0.002      8.221     10.046
REMARK INTER + INTRA:          -2.163
REMARK INTER:                   0.000
REMARK INTRA:                  -2.163
REMARK UNBOUND:                -2.166
REMARK  10 active torsions:
REMARK  status: ('A' for Active; 'I' for Inactive)
REMARK    1  A    between atoms: O1_1  and  C12_12 
REMARK    2  A    between atoms: O2_2  and  C13_13 
REMARK    3  A    between atoms: O3_3  and  C18_18 
REMARK    4  A    between atoms: O4_4  and  C19_19 
REMARK    5  A    between atoms: C7_7  and  C16_16 
REMARK    6  A    between atoms: C8_8  and  C17_17 
REMARK    7  A    between atoms: C9_9  and  C21_21 
REMARK    8  A    between atoms: C9_9  and  C20_20 
REMARK    9  A    between atoms: C20_20  and  C24_24 
REMARK   10  A    between atoms: C21_21  and  C25_25 
ROOT
HETATM    1  O1          0      41.567  14.035 192.508  1.00  0.00    -0.353 OA
HETATM    2  C26         0      41.134  12.684 192.677  1.00  0.00     0.210 C 
ENDROOT
BRANCH   1   3
HETATM    3  C12         0      42.778  14.286 193.188  1.00  0.00     0.102 A 
HETATM    4  C18         0      43.759  14.895 192.529  1.00  0.00     0.099 A 
HETATM    5  C22         0      45.035  15.171 193.209  1.00  0.00     0.040 A 
HETATM    6  C14         0      45.218  14.816 194.488  1.00  0.00     0.014 A 
HETATM    7  C7          0      44.144  14.139 195.243  1.00  0.00    -0.033 A 
HETATM    8  C10         0      42.981  13.888 194.620  1.00  0.00     0.051 A 
BRANCH   4   9
HETATM    9  O3          0      43.563  15.265 191.187  1.00  0.00    -0.358 OA
HETATM   10  H40         0      42.705  14.900 190.854  1.00  0.00     0.217 HD
ENDBRANCH   4   9
BRANCH   7  11
HETATM   11  C16         0      44.340  13.726 196.710  1.00  0.00     0.015 C 
HETATM   12  C24         0      43.569  14.167 197.729  1.00  0.00     0.051 C 
BRANCH  12  13
HETATM   13  C20         0      43.818  13.714 199.183  1.00  0.00     0.156 C 
HETATM   14  O5          0      44.854  14.078 199.752  1.00  0.00    -0.293 OA
BRANCH  13  15
HETATM   15  C9          0      42.784  12.800 199.952  1.00  0.00     0.165 C 
BRANCH  15  16
HETATM   16  C21         0      42.962  11.245 199.724  1.00  0.00     0.156 C 
HETATM   17  O6          0      42.992  10.484 200.698  1.00  0.00    -0.293 OA
BRANCH  16  18
HETATM   18  C25         0      43.101  10.649 198.308  1.00  0.00     0.051 C 
HETATM   19  C17         0      42.135  10.817 197.375  1.00  0.00     0.015 C 
BRANCH  19  20
HETATM   20  C8          0      42.213  10.250 195.949  1.00  0.00    -0.033 A 
HETATM   21  C15         0      41.047   9.592 195.322  1.00  0.00     0.014 A 
HETATM   22  C23         0      41.128   9.103 194.077  1.00  0.00     0.040 A 
HETATM   23  C19         0      42.377   9.208 193.308  1.00  0.00     0.099 A 
HETATM   24  C13         0      43.439   9.796 193.852  1.00  0.00     0.102 A 
HETATM   25  C11         0      43.352  10.345 195.245  1.00  0.00     0.051 A 
BRANCH  23  26
HETATM   26  O4          0      42.465   8.695 192.002  1.00  0.00    -0.358 OA
HETATM   27  H41         0      42.934   9.339 191.414  1.00  0.00     0.217 HD
ENDBRANCH  23  26
BRANCH  24  28
HETATM   28  O2          0      44.623   9.882 193.088  1.00  0.00    -0.353 OA
HETATM   29  C27         0      44.965  11.238 192.791  1.00  0.00     0.210 C 
ENDBRANCH  24  28
ENDBRANCH  19  20
ENDBRANCH  16  18
ENDBRANCH  15  16
ENDBRANCH  13  15
ENDBRANCH  12  13
ENDBRANCH   7  11
ENDBRANCH   1   3
TORSDOF 10
ENDMDL
MODEL 9
REMARK VINA RESULT:     0.002      5.278      8.376
REMARK INTER + INTRA:          -2.162
REMARK INTER:                   0.000
REMARK INTRA:                  -2.162
REMARK UNBOUND:                -2.166
REMARK  10 active torsions:
REMARK  status: ('A' for Active; 'I' for Inactive)
REMARK    1  A    between atoms: O1_1  and  C12_12 
REMARK    2  A    between atoms: O2_2  and  C13_13 
REMARK    3  A    between atoms: O3_3  and  C18_18 
REMARK    4  A    between atoms: O4_4  and  C19_19 
REMARK    5  A    between atoms: C7_7  and  C16_16 
REMARK    6  A    between atoms: C8_8  and  C17_17 
REMARK    7  A    between atoms: C9_9  and  C21_21 
REMARK    8  A    between atoms: C9_9  and  C20_20 
REMARK    9  A    between atoms: C20_20  and  C24_24 
REMARK   10  A    between atoms: C21_21  and  C25_25 
ROOT
HETATM    1  O1          0      34.925  17.398 197.346  1.00  0.00    -0.353 OA
HETATM    2  C26         0      35.036  16.657 198.562  1.00  0.00     0.210 C 
ENDROOT
BRANCH   1   3
HETATM    3  C12         0      34.904  16.551 196.217  1.00  0.00     0.102 A 
HETATM    4  C18         0      33.815  16.540 195.453  1.00  0.00     0.099 A 
HETATM    5  C22         0      33.762  15.668 194.269  1.00  0.00     0.040 A 
HETATM    6  C14         0      34.800  14.885 193.950  1.00  0.00     0.014 A 
HETATM    7  C7          0      36.023  14.879 194.780  1.00  0.00    -0.033 A 
HETATM    8  C10         0      36.069  15.675 195.861  1.00  0.00     0.051 A 
BRANCH   4   9
HETATM    9  O3          0      32.727  17.363 195.792  1.00  0.00    -0.358 OA
HETATM   10  H40         0      32.552  18.014 195.066  1.00  0.00     0.217 HD
ENDBRANCH   4   9
BRANCH   7  11
HETATM   11  C16         0      37.221  13.986 194.427  1.00  0.00     0.015 C 
HETATM   12  C24         0      38.508  14.401 194.455  1.00  0.00     0.051 C 
BRANCH  12  13
HETATM   13  C20         0      39.669  13.454 194.087  1.00  0.00     0.156 C 
HETATM   14  O5          0      40.435  13.775 193.171  1.00  0.00    -0.293 OA
BRANCH  13  15
HETATM   15  C9          0      39.895  12.089 194.852  1.00  0.00     0.165 C 
BRANCH  15  16
HETATM   16  C21         0      39.912  12.198 196.430  1.00  0.00     0.156 C 
HETATM   17  O6          0      40.990  12.327 197.023  1.00  0.00    -0.293 OA
BRANCH  16  18
HETATM   18  C25         0      38.610  12.147 197.255  1.00  0.00     0.051 C 
HETATM   19  C17         0      38.163  13.227 197.936  1.00  0.00     0.015 C 
BRANCH  19  20
HETATM   20  C8          0      36.876  13.242 198.774  1.00  0.00    -0.033 A 
HETATM   21  C15         0      36.903  13.581 200.212  1.00  0.00     0.014 A 
HETATM   22  C23         0      35.773  13.590 200.932  1.00  0.00     0.040 A 
HETATM   23  C19         0      34.481  13.262 200.308  1.00  0.00     0.099 A 
HETATM   24  C13         0      34.433  12.953 199.015  1.00  0.00     0.102 A 
HETATM   25  C11         0      35.696  12.942 198.206  1.00  0.00     0.051 A 
BRANCH  23  26
HETATM   26  O4          0      33.294  13.270 201.061  1.00  0.00    -0.358 OA
HETATM   27  H41         0      33.454  12.873 201.953  1.00  0.00     0.217 HD
ENDBRANCH  23  26
BRANCH  24  28
HETATM   28  O2          0      33.179  12.644 198.446  1.00  0.00    -0.353 OA
HETATM   29  C27         0      32.958  13.360 197.228  1.00  0.00     0.210 C 
ENDBRANCH  24  28
ENDBRANCH  19  20
ENDBRANCH  16  18
ENDBRANCH  15  16
ENDBRANCH  13  15
ENDBRANCH  12  13
ENDBRANCH   7  11
ENDBRANCH   1   3
TORSDOF 10
ENDMDL
