MODEL 1
REMARK VINA RESULT:     0.000      0.000      0.000
REMARK INTER + INTRA:          -2.133
REMARK INTER:                   0.000
REMARK INTRA:                  -2.133
REMARK UNBOUND:                -2.133
REMARK  Name = KETCA.pdb
REMARK  8 active torsions:
REMARK  status: ('A' for Active; 'I' for Inactive)
REMARK    1  A    between atoms: O5_5  and  C16_16
REMARK    2  A    between atoms: O5_5  and  C24_24
REMARK    3  A    between atoms: N7_7  and  C21_21
REMARK    4  A    between atoms: N9_9  and  C14_14
REMARK    5  A    between atoms: C11_11  and  C14_14
REMARK    6  A    between atoms: C11_11  and  C15_15
REMARK    7  A    between atoms: C12_12  and  C16_16
REMARK    8  A    between atoms: C25_25  and  C36_36
REMARK                            x       y       z     vdW  Elec       q    Type
REMARK                         _______ _______ _______ _____ _____    ______ ____
ROOT
ATOM      1  O3  UNK K   1      40.305  20.036 194.452  0.00  0.00    +0.000 OA
ATOM      2  O4  UNK K   1      39.127  20.169 192.445  0.00  0.00    +0.000 OA
ATOM      3  C11 UNK K   1      39.981  19.266 193.194  0.00  0.00    +0.000 C 
ATOM      4  C12 UNK K   1      39.696  21.371 194.255  0.00  0.00    +0.000 C 
ATOM      5  C13 UNK K   1      39.775  21.474 192.732  0.00  0.00    +0.000 C 
ENDROOT
BRANCH   3   8
ATOM      6 CL1  UNK K   1      38.728  17.150 191.025  0.00  0.00    +0.000 Cl
ATOM      7 CL2  UNK K   1      37.780  13.843 195.121  0.00  0.00    +0.000 Cl
ATOM      8  C15 UNK K   1      39.357  17.848 193.567  0.00  0.00    +0.000 A 
ATOM      9  C22 UNK K   1      38.872  16.916 192.713  0.00  0.00    +0.000 A 
ATOM     10  C23 UNK K   1      39.401  17.497 195.003  0.00  0.00    +0.000 A 
ATOM     11  C32 UNK K   1      38.340  15.638 193.237  0.00  0.00    +0.000 A 
ATOM     12  C33 UNK K   1      38.917  16.341 195.458  0.00  0.00    +0.000 A 
ATOM     13  C34 UNK K   1      38.387  15.358 194.534  0.00  0.00    +0.000 A 
ENDBRANCH   3   8
BRANCH   3  14
ATOM     14  C14 UNK K   1      41.321  19.123 192.329  0.00  0.00    +0.000 C 
BRANCH  14  15
ATOM     15  N9  UNK K   1      42.264  18.035 192.711  0.00  0.00    +0.000 N 
ATOM     16  N10 UNK K   1      43.892  17.040 193.729  0.00  0.00    +0.000 NA
ATOM     17  C28 UNK K   1      42.569  16.918 191.933  0.00  0.00    +0.000 A 
ATOM     18  C29 UNK K   1      43.136  18.070 193.803  0.00  0.00    +0.000 A 
ATOM     19  C35 UNK K   1      43.563  16.293 192.566  0.00  0.00    +0.000 A 
ENDBRANCH  14  15
ENDBRANCH   3  14
BRANCH   4  20
ATOM     20  C16 UNK K   1      40.345  22.585 195.186  0.00  0.00    +0.000 C 
BRANCH  20  21
ATOM     21  O5  UNK K   1      39.972  22.518 196.652  0.00  0.00    +0.000 OA
BRANCH  21  23
ATOM     22  C21 UNK K   1      39.162  18.617 198.590  0.00  0.00    +0.000 A 
ATOM     23  C24 UNK K   1      39.770  21.179 197.341  0.00  0.00    +0.000 A 
ATOM     24  C26 UNK K   1      40.431  19.056 198.494  0.00  0.00    +0.000 A 
ATOM     25  C27 UNK K   1      38.099  19.480 198.050  0.00  0.00    +0.000 A 
ATOM     26  C30 UNK K   1      40.756  20.416 197.845  0.00  0.00    +0.000 A 
ATOM     27  C31 UNK K   1      38.377  20.657 197.465  0.00  0.00    +0.000 A 
BRANCH  22  29
ATOM     28  O6  UNK K   1      38.012  12.402 200.262  0.00  0.00    +0.000 OA
ATOM     29  N7  UNK K   1      38.808  17.304 199.196  0.00  0.00    +0.000 N 
ATOM     30  N8  UNK K   1      38.013  14.717 200.285  0.00  0.00    +0.000 N 
ATOM     31  C17 UNK K   1      39.711  16.163 199.130  0.00  0.00    +0.000 C 
ATOM     32  C18 UNK K   1      37.511  17.121 199.844  0.00  0.00    +0.000 C 
ATOM     33  C19 UNK K   1      38.907  14.794 199.147  0.00  0.00    +0.000 C 
ATOM     34  C20 UNK K   1      37.539  15.940 200.893  0.00  0.00    +0.000 C 
ATOM     35  C25 UNK K   1      37.608  13.442 200.797  0.00  0.00    +0.000 C 
ATOM     36  C36 UNK K   1      36.710  13.346 202.008  0.00  0.00    +0.000 C 
ENDBRANCH  22  29
ENDBRANCH  21  23
ENDBRANCH  20  21
ENDBRANCH   4  20
TORSDOF 7
ENDMDL
MODEL 2
REMARK VINA RESULT:     0.000      6.502      8.153
REMARK INTER + INTRA:          -2.133
REMARK INTER:                   0.000
REMARK INTRA:                  -2.133
REMARK UNBOUND:                -2.133
REMARK  Name = KETCA.pdb
REMARK  8 active torsions:
REMARK  status: ('A' for Active; 'I' for Inactive)
REMARK    1  A    between atoms: O5_5  and  C16_16
REMARK    2  A    between atoms: O5_5  and  C24_24
REMARK    3  A    between atoms: N7_7  and  C21_21
REMARK    4  A    between atoms: N9_9  and  C14_14
REMARK    5  A    between atoms: C11_11  and  C14_14
REMARK    6  A    between atoms: C11_11  and  C15_15
REMARK    7  A    between atoms: C12_12  and  C16_16
REMARK    8  A    between atoms: C25_25  and  C36_36
REMARK                            x       y       z     vdW  Elec       q    Type
REMARK                         _______ _______ _______ _____ _____    ______ ____
ROOT
ATOM      1  O3  UNK K   1      33.826  18.784 193.936  0.00  0.00    +0.000 OA
ATOM      2  O4  UNK K   1      32.405  20.347 192.949  0.00  0.00    +0.000 OA
ATOM      3  C11 UNK K   1      33.509  19.462 192.624  0.00  0.00    +0.000 C 
ATOM      4  C12 UNK K   1      32.942  19.433 194.929  0.00  0.00    +0.000 C 
ATOM      5  C13 UNK K   1      32.809  20.819 194.297  0.00  0.00    +0.000 C 
ENDROOT
BRANCH   3   8
ATOM      6 CL1  UNK K   1      32.445  20.134 189.596  0.00  0.00    +0.000 Cl
ATOM      7 CL2  UNK K   1      32.697  14.889 188.576  0.00  0.00    +0.000 Cl
ATOM      8  C15 UNK K   1      33.233  18.371 191.496  0.00  0.00    +0.000 A 
ATOM      9  C22 UNK K   1      32.842  18.592 190.220  0.00  0.00    +0.000 A 
ATOM     10  C23 UNK K   1      33.525  16.974 191.886  0.00  0.00    +0.000 A 
ATOM     11  C32 UNK K   1      32.647  17.451 189.297  0.00  0.00    +0.000 A 
ATOM     12  C33 UNK K   1      33.343  15.958 191.042  0.00  0.00    +0.000 A 
ATOM     13  C34 UNK K   1      32.910  16.207 189.682  0.00  0.00    +0.000 A 
ENDBRANCH   3   8
BRANCH   3  14
ATOM     14  C14 UNK K   1      34.732  20.423 192.243  0.00  0.00    +0.000 C 
BRANCH  14  15
ATOM     15  N9  UNK K   1      35.914  19.792 191.591  0.00  0.00    +0.000 N 
ATOM     16  N10 UNK K   1      37.822  18.792 191.407  0.00  0.00    +0.000 NA
ATOM     17  C28 UNK K   1      36.338  20.025 190.283  0.00  0.00    +0.000 A 
ATOM     18  C29 UNK K   1      36.890  19.038 192.248  0.00  0.00    +0.000 A 
ATOM     19  C35 UNK K   1      37.508  19.396 190.160  0.00  0.00    +0.000 A 
ENDBRANCH  14  15
ENDBRANCH   3  14
BRANCH   4  20
ATOM     20  C16 UNK K   1      33.445  19.306 196.508  0.00  0.00    +0.000 C 
BRANCH  20  21
ATOM     21  O5  UNK K   1      33.278  17.927 197.110  0.00  0.00    +0.000 OA
BRANCH  21  23
ATOM     22  C21 UNK K   1      33.515  14.316 194.554  0.00  0.00    +0.000 A 
ATOM     23  C24 UNK K   1      33.436  16.682 196.253  0.00  0.00    +0.000 A 
ATOM     24  C26 UNK K   1      34.648  14.857 195.039  0.00  0.00    +0.000 A 
ATOM     25  C27 UNK K   1      32.241  14.957 194.919  0.00  0.00    +0.000 A 
ATOM     26  C30 UNK K   1      34.609  16.102 195.948  0.00  0.00    +0.000 A 
ATOM     27  C31 UNK K   1      32.203  16.054 195.694  0.00  0.00    +0.000 A 
BRANCH  22  29
ATOM     28  O6  UNK K   1      33.851   9.821 189.817  0.00  0.00    +0.000 OA
ATOM     29  N7  UNK K   1      33.509  13.124 193.661  0.00  0.00    +0.000 N 
ATOM     30  N8  UNK K   1      33.391  10.847 191.841  0.00  0.00    +0.000 N 
ATOM     31  C17 UNK K   1      34.607  12.850 192.744  0.00  0.00    +0.000 C 
ATOM     32  C18 UNK K   1      32.366  12.213 193.660  0.00  0.00    +0.000 C 
ATOM     33  C19 UNK K   1      34.102  12.053 191.468  0.00  0.00    +0.000 C 
ATOM     34  C20 UNK K   1      32.760  10.775 193.140  0.00  0.00    +0.000 C 
ATOM     35  C25 UNK K   1      33.316   9.744 190.931  0.00  0.00    +0.000 C 
ATOM     36  C36 UNK K   1      32.614   8.465 191.322  0.00  0.00    +0.000 C 
ENDBRANCH  22  29
ENDBRANCH  21  23
ENDBRANCH  20  21
ENDBRANCH   4  20
TORSDOF 7
ENDMDL
MODEL 3
REMARK VINA RESULT:     0.000      4.088      8.522
REMARK INTER + INTRA:          -2.133
REMARK INTER:                   0.000
REMARK INTRA:                  -2.133
REMARK UNBOUND:                -2.133
REMARK  Name = KETCA.pdb
REMARK  8 active torsions:
REMARK  status: ('A' for Active; 'I' for Inactive)
REMARK    1  A    between atoms: O5_5  and  C16_16
REMARK    2  A    between atoms: O5_5  and  C24_24
REMARK    3  A    between atoms: N7_7  and  C21_21
REMARK    4  A    between atoms: N9_9  and  C14_14
REMARK    5  A    between atoms: C11_11  and  C14_14
REMARK    6  A    between atoms: C11_11  and  C15_15
REMARK    7  A    between atoms: C12_12  and  C16_16
REMARK    8  A    between atoms: C25_25  and  C36_36
REMARK                            x       y       z     vdW  Elec       q    Type
REMARK                         _______ _______ _______ _____ _____    ______ ____
ROOT
ATOM      1  O3  UNK K   1      39.666  14.210 198.178  0.00  0.00    +0.000 OA
ATOM      2  O4  UNK K   1      40.117  12.161 199.194  0.00  0.00    +0.000 OA
ATOM      3  C11 UNK K   1      39.006  13.032 198.856  0.00  0.00    +0.000 C 
ATOM      4  C12 UNK K   1      41.120  13.958 198.295  0.00  0.00    +0.000 C 
ATOM      5  C13 UNK K   1      41.144  13.155 199.596  0.00  0.00    +0.000 C 
ENDROOT
BRANCH   3   8
ATOM      6 CL1  UNK K   1      37.354  10.268 199.475  0.00  0.00    +0.000 Cl
ATOM      7 CL2  UNK K   1      34.673  11.104 194.923  0.00  0.00    +0.000 Cl
ATOM      8  C15 UNK K   1      37.885  12.413 197.907  0.00  0.00    +0.000 A 
ATOM      9  C22 UNK K   1      37.139  11.307 198.134  0.00  0.00    +0.000 A 
ATOM     10  C23 UNK K   1      37.584  13.199 196.691  0.00  0.00    +0.000 A 
ATOM     11  C32 UNK K   1      36.124  10.883 197.144  0.00  0.00    +0.000 A 
ATOM     12  C33 UNK K   1      36.666  12.802 195.809  0.00  0.00    +0.000 A 
ATOM     13  C34 UNK K   1      35.884  11.608 196.057  0.00  0.00    +0.000 A 
ENDBRANCH   3   8
BRANCH   3  14
ATOM     14  C14 UNK K   1      38.404  13.525 200.255  0.00  0.00    +0.000 C 
BRANCH  14  15
ATOM     15  N9  UNK K   1      37.079  14.205 200.223  0.00  0.00    +0.000 N 
ATOM     16  N10 UNK K   1      35.638  15.809 200.068  0.00  0.00    +0.000 NA
ATOM     17  C28 UNK K   1      35.900  13.707 200.776  0.00  0.00    +0.000 A 
ATOM     18  C29 UNK K   1      36.860  15.526 199.820  0.00  0.00    +0.000 A 
ATOM     19  C35 UNK K   1      35.003  14.689 200.669  0.00  0.00    +0.000 A 
ENDBRANCH  14  15
ENDBRANCH   3  14
BRANCH   4  20
ATOM     20  C16 UNK K   1      42.081  15.307 198.155  0.00  0.00    +0.000 C 
BRANCH  20  21
ATOM     21  O5  UNK K   1      42.186  15.859 196.750  0.00  0.00    +0.000 OA
BRANCH  21  23
ATOM     22  C21 UNK K   1      38.831  15.391 193.894  0.00  0.00    +0.000 A 
ATOM     23  C24 UNK K   1      41.011  15.771 195.792  0.00  0.00    +0.000 A 
ATOM     24  C26 UNK K   1      38.825  16.425 194.757  0.00  0.00    +0.000 A 
ATOM     25  C27 UNK K   1      39.979  14.471 193.940  0.00  0.00    +0.000 A 
ATOM     26  C30 UNK K   1      39.982  16.635 195.755  0.00  0.00    +0.000 A 
ATOM     27  C31 UNK K   1      40.980  14.638 194.820  0.00  0.00    +0.000 A 
BRANCH  22  29
ATOM     28  O6  UNK K   1      33.397  13.923 190.567  0.00  0.00    +0.000 OA
ATOM     29  N7  UNK K   1      37.727  15.144 192.926  0.00  0.00    +0.000 N 
ATOM     30  N8  UNK K   1      35.582  14.520 191.051  0.00  0.00    +0.000 N 
ATOM     31  C17 UNK K   1      36.351  15.513 193.225  0.00  0.00    +0.000 C 
ATOM     32  C18 UNK K   1      38.002  14.479 191.654  0.00  0.00    +0.000 C 
ATOM     33  C19 UNK K   1      35.326  14.560 192.476  0.00  0.00    +0.000 C 
ATOM     34  C20 UNK K   1      36.910  14.819 190.565  0.00  0.00    +0.000 C 
ATOM     35  C25 UNK K   1      34.528  14.188 190.139  0.00  0.00    +0.000 C 
ATOM     36  C36 UNK K   1      34.769  14.182 188.648  0.00  0.00    +0.000 C 
ENDBRANCH  22  29
ENDBRANCH  21  23
ENDBRANCH  20  21
ENDBRANCH   4  20
TORSDOF 7
ENDMDL
MODEL 4
REMARK VINA RESULT:     0.000      4.059      7.359
REMARK INTER + INTRA:          -2.133
REMARK INTER:                   0.000
REMARK INTRA:                  -2.133
REMARK UNBOUND:                -2.133
REMARK  Name = KETCA.pdb
REMARK  8 active torsions:
REMARK  status: ('A' for Active; 'I' for Inactive)
REMARK    1  A    between atoms: O5_5  and  C16_16
REMARK    2  A    between atoms: O5_5  and  C24_24
REMARK    3  A    between atoms: N7_7  and  C21_21
REMARK    4  A    between atoms: N9_9  and  C14_14
REMARK    5  A    between atoms: C11_11  and  C14_14
REMARK    6  A    between atoms: C11_11  and  C15_15
REMARK    7  A    between atoms: C12_12  and  C16_16
REMARK    8  A    between atoms: C25_25  and  C36_36
REMARK                            x       y       z     vdW  Elec       q    Type
REMARK                         _______ _______ _______ _____ _____    ______ ____
ROOT
ATOM      1  O3  UNK K   1      38.401  20.760 199.612  0.00  0.00    +0.000 OA
ATOM      2  O4  UNK K   1      38.719  21.062 201.902  0.00  0.00    +0.000 OA
ATOM      3  C11 UNK K   1      37.700  20.666 200.947  0.00  0.00    +0.000 C 
ATOM      4  C12 UNK K   1      39.737  21.319 199.916  0.00  0.00    +0.000 C 
ATOM      5  C13 UNK K   1      39.399  22.150 201.154  0.00  0.00    +0.000 C 
ENDROOT
BRANCH   3   8
ATOM      6 CL1  UNK K   1      36.307  19.578 203.709  0.00  0.00    +0.000 Cl
ATOM      7 CL2  UNK K   1      35.336  14.980 201.155  0.00  0.00    +0.000 Cl
ATOM      8  C15 UNK K   1      37.080  19.211 201.138  0.00  0.00    +0.000 A 
ATOM      9  C22 UNK K   1      36.451  18.725 202.233  0.00  0.00    +0.000 A 
ATOM     10  C23 UNK K   1      37.132  18.341 199.943  0.00  0.00    +0.000 A 
ATOM     11  C32 UNK K   1      35.918  17.344 202.230  0.00  0.00    +0.000 A 
ATOM     12  C33 UNK K   1      36.648  17.099 199.957  0.00  0.00    +0.000 A 
ATOM     13  C34 UNK K   1      35.990  16.586 201.142  0.00  0.00    +0.000 A 
ENDBRANCH   3   8
BRANCH   3  14
ATOM     14  C14 UNK K   1      36.581  21.810 201.012  0.00  0.00    +0.000 C 
BRANCH  14  15
ATOM     15  N9  UNK K   1      35.278  21.524 200.349  0.00  0.00    +0.000 N 
ATOM     16  N10 UNK K   1      33.791  21.420 198.782  0.00  0.00    +0.000 NA
ATOM     17  C28 UNK K   1      34.054  21.373 201.000  0.00  0.00    +0.000 A 
ATOM     18  C29 UNK K   1      35.048  21.569 198.971  0.00  0.00    +0.000 A 
ATOM     19  C35 UNK K   1      33.135  21.293 200.036  0.00  0.00    +0.000 A 
ENDBRANCH  14  15
ENDBRANCH   3  14
BRANCH   4  20
ATOM     20  C16 UNK K   1      40.504  22.046 198.634  0.00  0.00    +0.000 C 
BRANCH  20  21
ATOM     21  O5  UNK K   1      41.031  21.085 197.590  0.00  0.00    +0.000 OA
BRANCH  21  23
ATOM     22  C21 UNK K   1      39.004  17.210 196.876  0.00  0.00    +0.000 A 
ATOM     23  C24 UNK K   1      40.296  19.790 197.286  0.00  0.00    +0.000 A 
ATOM     24  C26 UNK K   1      38.559  18.315 196.248  0.00  0.00    +0.000 A 
ATOM     25  C27 UNK K   1      40.167  17.354 197.768  0.00  0.00    +0.000 A 
ATOM     26  C30 UNK K   1      39.247  19.679 196.453  0.00  0.00    +0.000 A 
ATOM     27  C31 UNK K   1      40.758  18.544 197.966  0.00  0.00    +0.000 A 
BRANCH  22  29
ATOM     28  O6  UNK K   1      35.346  11.791 196.867  0.00  0.00    +0.000 OA
ATOM     29  N7  UNK K   1      38.359  15.878 196.717  0.00  0.00    +0.000 N 
ATOM     30  N8  UNK K   1      37.121  13.242 196.543  0.00  0.00    +0.000 N 
ATOM     31  C17 UNK K   1      36.932  15.745 196.459  0.00  0.00    +0.000 C 
ATOM     32  C18 UNK K   1      39.151  14.657 196.860  0.00  0.00    +0.000 C 
ATOM     33  C19 UNK K   1      36.369  14.378 197.038  0.00  0.00    +0.000 C 
ATOM     34  C20 UNK K   1      38.487  13.435 196.112  0.00  0.00    +0.000 C 
ATOM     35  C25 UNK K   1      36.513  11.947 196.485  0.00  0.00    +0.000 C 
ATOM     36  C36 UNK K   1      37.269  10.762 195.934  0.00  0.00    +0.000 C 
ENDBRANCH  22  29
ENDBRANCH  21  23
ENDBRANCH  20  21
ENDBRANCH   4  20
TORSDOF 7
ENDMDL
MODEL 5
REMARK VINA RESULT:     0.000      4.801      6.508
REMARK INTER + INTRA:          -2.132
REMARK INTER:                   0.000
REMARK INTRA:                  -2.132
REMARK UNBOUND:                -2.133
REMARK  Name = KETCA.pdb
REMARK  8 active torsions:
REMARK  status: ('A' for Active; 'I' for Inactive)
REMARK    1  A    between atoms: O5_5  and  C16_16
REMARK    2  A    between atoms: O5_5  and  C24_24
REMARK    3  A    between atoms: N7_7  and  C21_21
REMARK    4  A    between atoms: N9_9  and  C14_14
REMARK    5  A    between atoms: C11_11  and  C14_14
REMARK    6  A    between atoms: C11_11  and  C15_15
REMARK    7  A    between atoms: C12_12  and  C16_16
REMARK    8  A    between atoms: C25_25  and  C36_36
REMARK                            x       y       z     vdW  Elec       q    Type
REMARK                         _______ _______ _______ _____ _____    ______ ____
ROOT
ATOM      1  O3  UNK K   1      36.002  20.823 194.882  0.00  0.00    +0.000 OA
ATOM      2  O4  UNK K   1      33.809  21.611 194.814  0.00  0.00    +0.000 OA
ATOM      3  C11 UNK K   1      34.598  20.514 195.345  0.00  0.00    +0.000 C 
ATOM      4  C12 UNK K   1      35.870  22.020 194.022  0.00  0.00    +0.000 C 
ATOM      5  C13 UNK K   1      34.452  21.807 193.491  0.00  0.00    +0.000 C 
ENDROOT
BRANCH   3   8
ATOM      6 CL1  UNK K   1      31.878  20.137 197.137  0.00  0.00    +0.000 Cl
ATOM      7 CL2  UNK K   1      35.028  19.700 201.437  0.00  0.00    +0.000 Cl
ATOM      8  C15 UNK K   1      34.572  20.325 196.927  0.00  0.00    +0.000 A 
ATOM      9  C22 UNK K   1      33.489  20.116 197.710  0.00  0.00    +0.000 A 
ATOM     10  C23 UNK K   1      35.900  20.291 197.580  0.00  0.00    +0.000 A 
ATOM     11  C32 UNK K   1      33.653  19.945 199.171  0.00  0.00    +0.000 A 
ATOM     12  C33 UNK K   1      36.029  20.135 198.897  0.00  0.00    +0.000 A 
ATOM     13  C34 UNK K   1      34.859  19.928 199.727  0.00  0.00    +0.000 A 
ENDBRANCH   3   8
BRANCH   3  14
ATOM     14  C14 UNK K   1      34.088  19.205 194.575  0.00  0.00    +0.000 C 
BRANCH  14  15
ATOM     15  N9  UNK K   1      34.521  17.887 195.117  0.00  0.00    +0.000 N 
ATOM     16  N10 UNK K   1      35.748  16.132 195.413  0.00  0.00    +0.000 NA
ATOM     17  C28 UNK K   1      33.681  16.931 195.688  0.00  0.00    +0.000 A 
ATOM     18  C29 UNK K   1      35.789  17.324 194.950  0.00  0.00    +0.000 A 
ATOM     19  C35 UNK K   1      34.439  15.851 195.886  0.00  0.00    +0.000 A 
ENDBRANCH  14  15
ENDBRANCH   3  14
BRANCH   4  20
ATOM     20  C16 UNK K   1      37.114  22.253 192.945  0.00  0.00    +0.000 C 
BRANCH  20  21
ATOM     21  O5  UNK K   1      38.408  22.723 193.573  0.00  0.00    +0.000 OA
BRANCH  21  23
ATOM     22  C21 UNK K   1      39.441  21.566 197.724  0.00  0.00    +0.000 A 
ATOM     23  C24 UNK K   1      38.804  22.266 194.967  0.00  0.00    +0.000 A 
ATOM     24  C26 UNK K   1      39.739  20.730 196.711  0.00  0.00    +0.000 A 
ATOM     25  C27 UNK K   1      38.792  22.844 197.386  0.00  0.00    +0.000 A 
ATOM     26  C30 UNK K   1      39.415  21.102 195.251  0.00  0.00    +0.000 A 
ATOM     27  C31 UNK K   1      38.489  23.164 196.117  0.00  0.00    +0.000 A 
BRANCH  22  29
ATOM     28  O6  UNK K   1      39.768  19.421 203.891  0.00  0.00    +0.000 OA
ATOM     29  N7  UNK K   1      39.724  21.238 199.148  0.00  0.00    +0.000 N 
ATOM     30  N8  UNK K   1      40.156  20.661 201.975  0.00  0.00    +0.000 N 
ATOM     31  C17 UNK K   1      39.706  19.866 199.635  0.00  0.00    +0.000 C 
ATOM     32  C18 UNK K   1      39.989  22.308 200.109  0.00  0.00    +0.000 C 
ATOM     33  C19 UNK K   1      39.305  19.808 201.170  0.00  0.00    +0.000 C 
ATOM     34  C20 UNK K   1      40.811  21.790 201.354  0.00  0.00    +0.000 C 
ATOM     35  C25 UNK K   1      40.342  20.384 203.368  0.00  0.00    +0.000 C 
ATOM     36  C36 UNK K   1      41.258  21.240 204.210  0.00  0.00    +0.000 C 
ENDBRANCH  22  29
ENDBRANCH  21  23
ENDBRANCH  20  21
ENDBRANCH   4  20
TORSDOF 7
ENDMDL
MODEL 6
REMARK VINA RESULT:     0.002      3.998      6.944
REMARK INTER + INTRA:          -2.130
REMARK INTER:                   0.000
REMARK INTRA:                  -2.130
REMARK UNBOUND:                -2.133
REMARK  Name = KETCA.pdb
REMARK  8 active torsions:
REMARK  status: ('A' for Active; 'I' for Inactive)
REMARK    1  A    between atoms: O5_5  and  C16_16
REMARK    2  A    between atoms: O5_5  and  C24_24
REMARK    3  A    between atoms: N7_7  and  C21_21
REMARK    4  A    between atoms: N9_9  and  C14_14
REMARK    5  A    between atoms: C11_11  and  C14_14
REMARK    6  A    between atoms: C11_11  and  C15_15
REMARK    7  A    between atoms: C12_12  and  C16_16
REMARK    8  A    between atoms: C25_25  and  C36_36
REMARK                            x       y       z     vdW  Elec       q    Type
REMARK                         _______ _______ _______ _____ _____    ______ ____
ROOT
ATOM      1  O3  UNK K   1      37.790  21.956 196.516  0.00  0.00    +0.000 OA
ATOM      2  O4  UNK K   1      37.170  23.127 198.434  0.00  0.00    +0.000 OA
ATOM      3  C11 UNK K   1      37.247  21.774 197.913  0.00  0.00    +0.000 C 
ATOM      4  C12 UNK K   1      37.866  23.420 196.318  0.00  0.00    +0.000 C 
ATOM      5  C13 UNK K   1      36.721  23.868 197.228  0.00  0.00    +0.000 C 
ENDROOT
BRANCH   3   8
ATOM      6 CL1  UNK K   1      36.914  21.106 201.106  0.00  0.00    +0.000 Cl
ATOM      7 CL2  UNK K   1      40.971  17.658 200.589  0.00  0.00    +0.000 Cl
ATOM      8  C15 UNK K   1      38.162  20.754 198.727  0.00  0.00    +0.000 A 
ATOM      9  C22 UNK K   1      38.041  20.403 200.028  0.00  0.00    +0.000 A 
ATOM     10  C23 UNK K   1      39.199  20.062 197.930  0.00  0.00    +0.000 A 
ATOM     11  C32 UNK K   1      38.977  19.421 200.621  0.00  0.00    +0.000 A 
ATOM     12  C33 UNK K   1      40.034  19.180 198.480  0.00  0.00    +0.000 A 
ATOM     13  C34 UNK K   1      39.902  18.824 199.878  0.00  0.00    +0.000 A 
ENDBRANCH   3   8
BRANCH   3  14
ATOM     14  C14 UNK K   1      35.732  21.267 197.805  0.00  0.00    +0.000 C 
BRANCH  14  15
ATOM     15  N9  UNK K   1      35.518  19.811 197.571  0.00  0.00    +0.000 N 
ATOM     16  N10 UNK K   1      35.264  17.958 196.487  0.00  0.00    +0.000 NA
ATOM     17  C28 UNK K   1      34.932  18.923 198.473  0.00  0.00    +0.000 A 
ATOM     18  C29 UNK K   1      35.680  19.160 196.345  0.00  0.00    +0.000 A 
ATOM     19  C35 UNK K   1      34.787  17.773 197.812  0.00  0.00    +0.000 A 
ENDBRANCH  14  15
ENDBRANCH   3  14
BRANCH   4  20
ATOM     20  C16 UNK K   1      37.885  23.917 194.733  0.00  0.00    +0.000 C 
BRANCH  20  21
ATOM     21  O5  UNK K   1      39.186  23.649 194.007  0.00  0.00    +0.000 OA
BRANCH  21  23
ATOM     22  C21 UNK K   1      41.718  20.193 195.135  0.00  0.00    +0.000 A 
ATOM     23  C24 UNK K   1      40.019  22.422 194.336  0.00  0.00    +0.000 A 
ATOM     24  C26 UNK K   1      40.704  20.014 194.268  0.00  0.00    +0.000 A 
ATOM     25  C27 UNK K   1      41.940  21.552 195.655  0.00  0.00    +0.000 A 
ATOM     26  C30 UNK K   1      39.811  21.193 193.834  0.00  0.00    +0.000 A 
ATOM     27  C31 UNK K   1      41.152  22.579 195.296  0.00  0.00    +0.000 A 
BRANCH  22  29
ATOM     28  O6  UNK K   1      44.657  14.990 197.789  0.00  0.00    +0.000 OA
ATOM     29  N7  UNK K   1      42.594  19.078 195.591  0.00  0.00    +0.000 N 
ATOM     30  N8  UNK K   1      44.313  16.955 196.613  0.00  0.00    +0.000 N 
ATOM     31  C17 UNK K   1      42.100  17.713 195.701  0.00  0.00    +0.000 C 
ATOM     32  C18 UNK K   1      43.977  19.344 195.981  0.00  0.00    +0.000 C 
ATOM     33  C19 UNK K   1      42.880  16.909 196.825  0.00  0.00    +0.000 C 
ATOM     34  C20 UNK K   1      44.880  18.054 195.864  0.00  0.00    +0.000 C 
ATOM     35  C25 UNK K   1      45.152  15.921 197.140  0.00  0.00    +0.000 C 
ATOM     36  C36 UNK K   1      46.642  15.932 196.892  0.00  0.00    +0.000 C 
ENDBRANCH  22  29
ENDBRANCH  21  23
ENDBRANCH  20  21
ENDBRANCH   4  20
TORSDOF 7
ENDMDL
MODEL 7
REMARK VINA RESULT:     0.003      4.547     11.062
REMARK INTER + INTRA:          -2.129
REMARK INTER:                   0.000
REMARK INTRA:                  -2.129
REMARK UNBOUND:                -2.133
REMARK  Name = KETCA.pdb
REMARK  8 active torsions:
REMARK  status: ('A' for Active; 'I' for Inactive)
REMARK    1  A    between atoms: O5_5  and  C16_16
REMARK    2  A    between atoms: O5_5  and  C24_24
REMARK    3  A    between atoms: N7_7  and  C21_21
REMARK    4  A    between atoms: N9_9  and  C14_14
REMARK    5  A    between atoms: C11_11  and  C14_14
REMARK    6  A    between atoms: C11_11  and  C15_15
REMARK    7  A    between atoms: C12_12  and  C16_16
REMARK    8  A    between atoms: C25_25  and  C36_36
REMARK                            x       y       z     vdW  Elec       q    Type
REMARK                         _______ _______ _______ _____ _____    ______ ____
ROOT
ATOM      1  O3  UNK K   1      34.076  10.855 200.990  0.00  0.00    +0.000 OA
ATOM      2  O4  UNK K   1      32.736  11.724 202.688  0.00  0.00    +0.000 OA
ATOM      3  C11 UNK K   1      34.114  11.357 202.414  0.00  0.00    +0.000 C 
ATOM      4  C12 UNK K   1      32.645  10.870 200.613  0.00  0.00    +0.000 C 
ATOM      5  C13 UNK K   1      32.009  10.638 201.984  0.00  0.00    +0.000 C 
ENDROOT
BRANCH   3   8
ATOM      6 CL1  UNK K   1      34.565  13.171 205.108  0.00  0.00    +0.000 Cl
ATOM      7 CL2  UNK K   1      38.519  15.663 202.509  0.00  0.00    +0.000 Cl
ATOM      8  C15 UNK K   1      35.197  12.518 202.555  0.00  0.00    +0.000 A 
ATOM      9  C22 UNK K   1      35.460  13.263 203.654  0.00  0.00    +0.000 A 
ATOM     10  C23 UNK K   1      36.055  12.728 201.369  0.00  0.00    +0.000 A 
ATOM     11  C32 UNK K   1      36.520  14.295 203.611  0.00  0.00    +0.000 A 
ATOM     12  C33 UNK K   1      37.005  13.663 201.348  0.00  0.00    +0.000 A 
ATOM     13  C34 UNK K   1      37.267  14.464 202.526  0.00  0.00    +0.000 A 
ENDBRANCH   3   8
BRANCH   3  14
ATOM     14  C14 UNK K   1      34.430  10.119 203.378  0.00  0.00    +0.000 C 
BRANCH  14  15
ATOM     15  N9  UNK K   1      35.858   9.716 203.520  0.00  0.00    +0.000 N 
ATOM     16  N10 UNK K   1      37.718   8.698 203.098  0.00  0.00    +0.000 NA
ATOM     17  C28 UNK K   1      36.616   9.817 204.686  0.00  0.00    +0.000 A 
ATOM     18  C29 UNK K   1      36.587   8.990 202.575  0.00  0.00    +0.000 A 
ATOM     19  C35 UNK K   1      37.771   9.203 204.425  0.00  0.00    +0.000 A 
ENDBRANCH  14  15
ENDBRANCH   3  14
BRANCH   4  20
ATOM     20  C16 UNK K   1      32.239   9.870 199.350  0.00  0.00    +0.000 C 
BRANCH  20  21
ATOM     21  O5  UNK K   1      32.706  10.352 197.993  0.00  0.00    +0.000 OA
BRANCH  21  23
ATOM     22  C21 UNK K   1      36.392  12.783 197.618  0.00  0.00    +0.000 A 
ATOM     23  C24 UNK K   1      34.010  11.118 197.849  0.00  0.00    +0.000 A 
ATOM     24  C26 UNK K   1      36.486  11.440 197.649  0.00  0.00    +0.000 A 
ATOM     25  C27 UNK K   1      35.046  13.374 197.697  0.00  0.00    +0.000 A 
ATOM     26  C30 UNK K   1      35.228  10.556 197.759  0.00  0.00    +0.000 A 
ATOM     27  C31 UNK K   1      33.947  12.610 197.814  0.00  0.00    +0.000 A 
BRANCH  22  29
ATOM     28  O6  UNK K   1      41.777  16.420 198.339  0.00  0.00    +0.000 OA
ATOM     29  N7  UNK K   1      37.582  13.672 197.528  0.00  0.00    +0.000 N 
ATOM     30  N8  UNK K   1      39.850  15.505 197.439  0.00  0.00    +0.000 N 
ATOM     31  C17 UNK K   1      38.866  13.292 198.101  0.00  0.00    +0.000 C 
ATOM     32  C18 UNK K   1      37.474  14.981 196.888  0.00  0.00    +0.000 C 
ATOM     33  C19 UNK K   1      39.701  14.570 198.535  0.00  0.00    +0.000 C 
ATOM     34  C20 UNK K   1      38.873  15.502 196.373  0.00  0.00    +0.000 C 
ATOM     35  C25 UNK K   1      40.952  16.419 197.416  0.00  0.00    +0.000 C 
ATOM     36  C36 UNK K   1      41.143  17.371 196.260  0.00  0.00    +0.000 C 
ENDBRANCH  22  29
ENDBRANCH  21  23
ENDBRANCH  20  21
ENDBRANCH   4  20
TORSDOF 7
ENDMDL
MODEL 8
REMARK VINA RESULT:     0.003      4.044      7.477
REMARK INTER + INTRA:          -2.129
REMARK INTER:                   0.000
REMARK INTRA:                  -2.129
REMARK UNBOUND:                -2.133
REMARK  Name = KETCA.pdb
REMARK  8 active torsions:
REMARK  status: ('A' for Active; 'I' for Inactive)
REMARK    1  A    between atoms: O5_5  and  C16_16
REMARK    2  A    between atoms: O5_5  and  C24_24
REMARK    3  A    between atoms: N7_7  and  C21_21
REMARK    4  A    between atoms: N9_9  and  C14_14
REMARK    5  A    between atoms: C11_11  and  C14_14
REMARK    6  A    between atoms: C11_11  and  C15_15
REMARK    7  A    between atoms: C12_12  and  C16_16
REMARK    8  A    between atoms: C25_25  and  C36_36
REMARK                            x       y       z     vdW  Elec       q    Type
REMARK                         _______ _______ _______ _____ _____    ______ ____
ROOT
ATOM      1  O3  UNK K   1      41.499  15.209 195.118  0.00  0.00    +0.000 OA
ATOM      2  O4  UNK K   1      41.675  15.625 197.405  0.00  0.00    +0.000 OA
ATOM      3  C11 UNK K   1      41.468  16.316 196.145  0.00  0.00    +0.000 C 
ATOM      4  C12 UNK K   1      41.840  13.986 195.878  0.00  0.00    +0.000 C 
ATOM      5  C13 UNK K   1      42.672  14.600 197.005  0.00  0.00    +0.000 C 
ENDROOT
BRANCH   3   8
ATOM      6 CL1  UNK K   1      40.514  18.672 198.217  0.00  0.00    +0.000 Cl
ATOM      7 CL2  UNK K   1      36.199  19.343 195.128  0.00  0.00    +0.000 Cl
ATOM      8  C15 UNK K   1      40.118  17.151 196.010  0.00  0.00    +0.000 A 
ATOM      9  C22 UNK K   1      39.697  18.164 196.803  0.00  0.00    +0.000 A 
ATOM     10  C23 UNK K   1      39.289  16.822 194.829  0.00  0.00    +0.000 A 
ATOM     11  C32 UNK K   1      38.413  18.843 196.518  0.00  0.00    +0.000 A 
ATOM     12  C33 UNK K   1      38.134  17.444 194.588  0.00  0.00    +0.000 A 
ATOM     13  C34 UNK K   1      37.688  18.517 195.454  0.00  0.00    +0.000 A 
ENDBRANCH   3   8
BRANCH   3  14
ATOM     14  C14 UNK K   1      42.765  17.233 195.939  0.00  0.00    +0.000 C 
BRANCH  14  15
ATOM     15  N9  UNK K   1      42.700  18.270 194.872  0.00  0.00    +0.000 N 
ATOM     16  N10 UNK K   1      42.873  19.158 192.908  0.00  0.00    +0.000 NA
ATOM     17  C28 UNK K   1      42.715  19.649 195.080  0.00  0.00    +0.000 A 
ATOM     18  C29 UNK K   1      42.825  18.025 193.501  0.00  0.00    +0.000 A 
ATOM     19  C35 UNK K   1      42.806  20.201 193.869  0.00  0.00    +0.000 A 
ENDBRANCH  14  15
ENDBRANCH   3  14
BRANCH   4  20
ATOM     20  C16 UNK K   1      42.485  12.752 194.972  0.00  0.00    +0.000 C 
BRANCH  20  21
ATOM     21  O5  UNK K   1      41.490  12.042 194.079  0.00  0.00    +0.000 OA
BRANCH  21  23
ATOM     22  C21 UNK K   1      37.992  14.214 192.443  0.00  0.00    +0.000 A 
ATOM     23  C24 UNK K   1      40.332  12.800 193.452  0.00  0.00    +0.000 A 
ATOM     24  C26 UNK K   1      39.171  14.278 191.796  0.00  0.00    +0.000 A 
ATOM     25  C27 UNK K   1      37.928  13.400 193.668  0.00  0.00    +0.000 A 
ATOM     26  C30 UNK K   1      40.408  13.523 192.321  0.00  0.00    +0.000 A 
ATOM     27  C31 UNK K   1      39.008  12.755 194.140  0.00  0.00    +0.000 A 
BRANCH  22  29
ATOM     28  O6  UNK K   1      33.190  18.346 190.825  0.00  0.00    +0.000 OA
ATOM     29  N7  UNK K   1      36.778  14.940 191.978  0.00  0.00    +0.000 N 
ATOM     30  N8  UNK K   1      34.367  16.388 191.205  0.00  0.00    +0.000 N 
ATOM     31  C17 UNK K   1      36.871  16.208 191.268  0.00  0.00    +0.000 C 
ATOM     32  C18 UNK K   1      35.448  14.407 192.267  0.00  0.00    +0.000 C 
ATOM     33  C19 UNK K   1      35.586  17.104 191.523  0.00  0.00    +0.000 C 
ATOM     34  C20 UNK K   1      34.366  14.943 191.249  0.00  0.00    +0.000 C 
ATOM     35  C25 UNK K   1      33.180  17.108 190.851  0.00  0.00    +0.000 C 
ATOM     36  C36 UNK K   1      31.914  16.375 190.475  0.00  0.00    +0.000 C 
ENDBRANCH  22  29
ENDBRANCH  21  23
ENDBRANCH  20  21
ENDBRANCH   4  20
TORSDOF 7
ENDMDL
MODEL 9
REMARK VINA RESULT:     0.003      5.013      8.764
REMARK INTER + INTRA:          -2.129
REMARK INTER:                   0.000
REMARK INTRA:                  -2.129
REMARK UNBOUND:                -2.133
REMARK  Name = KETCA.pdb
REMARK  8 active torsions:
REMARK  status: ('A' for Active; 'I' for Inactive)
REMARK    1  A    between atoms: O5_5  and  C16_16
REMARK    2  A    between atoms: O5_5  and  C24_24
REMARK    3  A    between atoms: N7_7  and  C21_21
REMARK    4  A    between atoms: N9_9  and  C14_14
REMARK    5  A    between atoms: C11_11  and  C14_14
REMARK    6  A    between atoms: C11_11  and  C15_15
REMARK    7  A    between atoms: C12_12  and  C16_16
REMARK    8  A    between atoms: C25_25  and  C36_36
REMARK                            x       y       z     vdW  Elec       q    Type
REMARK                         _______ _______ _______ _____ _____    ______ ____
ROOT
ATOM      1  O3  UNK K   1      33.242  19.874 193.473  0.00  0.00    +0.000 OA
ATOM      2  O4  UNK K   1      32.277  21.284 195.060  0.00  0.00    +0.000 OA
ATOM      3  C11 UNK K   1      33.137  20.119 194.960  0.00  0.00    +0.000 C 
ATOM      4  C12 UNK K   1      32.328  20.861 192.854  0.00  0.00    +0.000 C 
ATOM      5  C13 UNK K   1      31.300  21.007 193.976  0.00  0.00    +0.000 C 
ENDROOT
BRANCH   3   8
ATOM      6 CL1  UNK K   1      33.744  20.974 198.067  0.00  0.00    +0.000 Cl
ATOM      7 CL2  UNK K   1      38.951  20.408 196.980  0.00  0.00    +0.000 Cl
ATOM      8  C15 UNK K   1      34.592  20.258 195.595  0.00  0.00    +0.000 A 
ATOM      9  C22 UNK K   1      34.901  20.558 196.878  0.00  0.00    +0.000 A 
ATOM     10  C23 UNK K   1      35.712  19.934 194.684  0.00  0.00    +0.000 A 
ATOM     11  C32 UNK K   1      36.318  20.630 197.301  0.00  0.00    +0.000 A 
ATOM     12  C33 UNK K   1      36.982  20.004 195.081  0.00  0.00    +0.000 A 
ATOM     13  C34 UNK K   1      37.300  20.341 196.454  0.00  0.00    +0.000 A 
ENDBRANCH   3   8
BRANCH   3  14
ATOM     14  C14 UNK K   1      32.309  18.915 195.614  0.00  0.00    +0.000 C 
BRANCH  14  15
ATOM     15  N9  UNK K   1      33.054  17.659 195.909  0.00  0.00    +0.000 N 
ATOM     16  N10 UNK K   1      33.911  15.699 195.591  0.00  0.00    +0.000 NA
ATOM     17  C28 UNK K   1      33.306  17.146 197.181  0.00  0.00    +0.000 A 
ATOM     18  C29 UNK K   1      33.430  16.704 194.960  0.00  0.00    +0.000 A 
ATOM     19  C35 UNK K   1      33.849  15.943 196.989  0.00  0.00    +0.000 A 
ENDBRANCH  14  15
ENDBRANCH   3  14
BRANCH   4  20
ATOM     20  C16 UNK K   1      31.810  20.476 191.323  0.00  0.00    +0.000 C 
BRANCH  20  21
ATOM     21  O5  UNK K   1      32.865  20.626 190.248  0.00  0.00    +0.000 OA
BRANCH  21  23
ATOM     22  C21 UNK K   1      37.150  20.030 191.205  0.00  0.00    +0.000 A 
ATOM     23  C24 UNK K   1      34.328  20.347 190.552  0.00  0.00    +0.000 A 
ATOM     24  C26 UNK K   1      36.386  18.964 190.904  0.00  0.00    +0.000 A 
ATOM     25  C27 UNK K   1      36.511  21.356 191.183  0.00  0.00    +0.000 A 
ATOM     26  C30 UNK K   1      34.895  19.128 190.546  0.00  0.00    +0.000 A 
ATOM     27  C31 UNK K   1      35.208  21.504 190.892  0.00  0.00    +0.000 A 
BRANCH  22  29
ATOM     28  O6  UNK K   1      43.071  19.127 193.827  0.00  0.00    +0.000 OA
ATOM     29  N7  UNK K   1      38.589  19.913 191.570  0.00  0.00    +0.000 N 
ATOM     30  N8  UNK K   1      41.388  19.788 192.381  0.00  0.00    +0.000 N 
ATOM     31  C17 UNK K   1      39.112  18.737 192.251  0.00  0.00    +0.000 C 
ATOM     32  C18 UNK K   1      39.511  21.011 191.284  0.00  0.00    +0.000 C 
ATOM     33  C19 UNK K   1      40.368  19.105 193.149  0.00  0.00    +0.000 C 
ATOM     34  C20 UNK K   1      41.006  20.513 191.190  0.00  0.00    +0.000 C 
ATOM     35  C25 UNK K   1      42.757  19.742 192.800  0.00  0.00    +0.000 C 
ATOM     36  C36 UNK K   1      43.838  20.415 191.987  0.00  0.00    +0.000 C 
ENDBRANCH  22  29
ENDBRANCH  21  23
ENDBRANCH  20  21
ENDBRANCH   4  20
TORSDOF 7
ENDMDL
