MODEL 1
REMARK VINA RESULT:     0.000      0.000      0.000
REMARK INTER + INTRA:          -1.245
REMARK INTER:                   0.000
REMARK INTRA:                  -1.245
REMARK UNBOUND:                -1.245
REMARK  7 active torsions:
REMARK  status: ('A' for Active; 'I' for Inactive)
REMARK    1  A    between atoms: N2_1  and  C1_2 
REMARK    2  A    between atoms: C1_2  and  C2_3 
REMARK    3  A    between atoms: C2_3  and  C3_4 
REMARK       I    between atoms: C3_4  and  N1_6 
REMARK    4  A    between atoms: N1_6  and  C4_7 
REMARK    5  A    between atoms: C4_7  and  C13_8 
REMARK    6  A    between atoms: C4_7  and  C5_10 
REMARK    7  A    between atoms: C13_8  and  C7_9 
ROOT
HETATM    1  N2  BES   501      37.649  22.772 193.689  1.00  0.00    -0.079 N 
HETATM    2  H1  BES   501      38.082  22.550 194.642  1.00  0.00     0.274 HD
HETATM    3  H2  BES   501      38.009  23.721 193.347  1.00  0.00     0.274 HD
HETATM    4  H1  BES   501      37.926  22.013 192.988  1.00  0.00     0.274 HD
ENDROOT
BRANCH   1   5
HETATM    5  C1  BES   501      36.179  22.817 193.813  1.00  0.00     0.238 C 
BRANCH   5   6
HETATM    6  C2  BES   501      35.523  21.499 193.541  1.00  0.00     0.123 C 
BRANCH   6   7
HETATM    7  C3  BES   501      36.576  20.500 193.155  1.00  0.00     0.199 C 
HETATM    8  O3  BES   501      36.935  19.714 194.003  1.00  0.00    -0.280 OA
HETATM    9  N1  BES   501      37.111  20.517 191.787  1.00  0.00    -0.248 NA
HETATM   10  H7  BES   501      37.503  21.503 191.643  1.00  0.00     0.131 HD
BRANCH   9  11
HETATM   11  C4  BES   501      38.143  19.608 191.288  1.00  0.00     0.169 C 
BRANCH  11  12
HETATM   12  C13 BES   501      37.609  18.840 190.075  1.00  0.00     0.089 C 
BRANCH  12  13
HETATM   13  C7  BES   501      37.375  17.360 190.434  1.00  0.00     0.031 A 
HETATM   14  C21 BES   501      38.355  16.200 190.174  1.00  0.00     0.143 A 
HETATM   15  N22 BES   501      37.706  14.904 190.694  1.00  0.00    -0.254 N 
HETATM   16  C23 BES   501      36.326  15.263 191.277  1.00  0.00     0.209 A 
HETATM   17  N24 BES   501      36.122  16.781 191.115  1.00  0.00    -0.348 N 
HETATM   18  C1  BES   501      34.897  17.569 191.552  1.00  0.00     0.157 C 
ENDBRANCH  12  13
ENDBRANCH  11  12
BRANCH  11  19
HETATM   19  C5  BES   501      39.302  20.443 190.850  1.00  0.00     0.192 C 
HETATM   20  O1  BES   501      40.064  20.015 189.941  1.00  0.00    -0.647 OA
HETATM   21  O4  BES   501      39.437  21.583 191.395  1.00  0.00    -0.647 OA
ENDBRANCH  11  19
ENDBRANCH   9  11
ENDBRANCH   6   7
ENDBRANCH   5   6
ENDBRANCH   1   5
TORSDOF 7
ENDMDL
MODEL 2
REMARK VINA RESULT:     0.000      2.706      5.895
REMARK INTER + INTRA:          -1.244
REMARK INTER:                   0.000
REMARK INTRA:                  -1.244
REMARK UNBOUND:                -1.245
REMARK  7 active torsions:
REMARK  status: ('A' for Active; 'I' for Inactive)
REMARK    1  A    between atoms: N2_1  and  C1_2 
REMARK    2  A    between atoms: C1_2  and  C2_3 
REMARK    3  A    between atoms: C2_3  and  C3_4 
REMARK       I    between atoms: C3_4  and  N1_6 
REMARK    4  A    between atoms: N1_6  and  C4_7 
REMARK    5  A    between atoms: C4_7  and  C13_8 
REMARK    6  A    between atoms: C4_7  and  C5_10 
REMARK    7  A    between atoms: C13_8  and  C7_9 
ROOT
HETATM    1  N2  BES   501      34.024  15.273 192.240  1.00  0.00    -0.079 N 
HETATM    2  H1  BES   501      33.129  15.817 192.016  1.00  0.00     0.274 HD
HETATM    3  H2  BES   501      34.100  14.429 191.587  1.00  0.00     0.274 HD
HETATM    4  H1  BES   501      34.871  15.911 192.100  1.00  0.00     0.274 HD
ENDROOT
BRANCH   1   5
HETATM    5  C1  BES   501      33.981  14.811 193.641  1.00  0.00     0.238 C 
BRANCH   5   6
HETATM    6  C2  BES   501      34.079  15.927 194.635  1.00  0.00     0.123 C 
BRANCH   6   7
HETATM    7  C3  BES   501      34.256  17.223 193.897  1.00  0.00     0.199 C 
HETATM    8  O3  BES   501      33.282  17.931 193.774  1.00  0.00    -0.280 OA
HETATM    9  N1  BES   501      35.583  17.571 193.371  1.00  0.00    -0.248 NA
HETATM   10  H7  BES   501      35.856  16.765 192.721  1.00  0.00     0.131 HD
BRANCH   9  11
HETATM   11  C4  BES   501      35.887  18.794 192.628  1.00  0.00     0.169 C 
BRANCH  11  12
HETATM   12  C13 BES   501      36.993  19.572 193.348  1.00  0.00     0.089 C 
BRANCH  12  13
HETATM   13  C7  BES   501      36.424  20.855 193.982  1.00  0.00     0.031 A 
HETATM   14  C21 BES   501      36.457  22.264 193.360  1.00  0.00     0.143 A 
HETATM   15  N22 BES   501      35.778  23.234 194.344  1.00  0.00    -0.254 N 
HETATM   16  C23 BES   501      35.324  22.426 195.574  1.00  0.00     0.209 A 
HETATM   17  N24 BES   501      35.724  20.956 195.350  1.00  0.00    -0.348 N 
HETATM   18  C1  BES   501      35.471  19.805 196.311  1.00  0.00     0.157 C 
ENDBRANCH  12  13
ENDBRANCH  11  12
BRANCH  11  19
HETATM   19  C5  BES   501      36.390  18.388 191.282  1.00  0.00     0.192 C 
HETATM   20  O1  BES   501      37.194  19.141 190.668  1.00  0.00    -0.647 OA
HETATM   21  O4  BES   501      36.009  17.261 190.834  1.00  0.00    -0.647 OA
ENDBRANCH  11  19
ENDBRANCH   9  11
ENDBRANCH   6   7
ENDBRANCH   5   6
ENDBRANCH   1   5
TORSDOF 7
ENDMDL
MODEL 3
REMARK VINA RESULT:     0.000      3.409      5.744
REMARK INTER + INTRA:          -1.244
REMARK INTER:                   0.000
REMARK INTRA:                  -1.244
REMARK UNBOUND:                -1.245
REMARK  7 active torsions:
REMARK  status: ('A' for Active; 'I' for Inactive)
REMARK    1  A    between atoms: N2_1  and  C1_2 
REMARK    2  A    between atoms: C1_2  and  C2_3 
REMARK    3  A    between atoms: C2_3  and  C3_4 
REMARK       I    between atoms: C3_4  and  N1_6 
REMARK    4  A    between atoms: N1_6  and  C4_7 
REMARK    5  A    between atoms: C4_7  and  C13_8 
REMARK    6  A    between atoms: C4_7  and  C5_10 
REMARK    7  A    between atoms: C13_8  and  C7_9 
ROOT
HETATM    1  N2  BES   501      34.024  15.273 192.240  1.00  0.00    -0.079 N 
HETATM    2  H1  BES   501      33.506  16.206 192.154  1.00  0.00     0.274 HD
HETATM    3  H2  BES   501      33.699  14.613 191.463  1.00  0.00     0.274 HD
HETATM    4  H1  BES   501      35.076  15.441 192.148  1.00  0.00     0.274 HD
ENDROOT
BRANCH   1   5
HETATM    5  C1  BES   501      33.734  14.669 193.555  1.00  0.00     0.238 C 
BRANCH   5   6
HETATM    6  C2  BES   501      34.335  15.426 194.698  1.00  0.00     0.123 C 
BRANCH   6   7
HETATM    7  C3  BES   501      35.130  16.579 194.157  1.00  0.00     0.199 C 
HETATM    8  O3  BES   501      34.620  17.676 194.199  1.00  0.00    -0.280 OA
HETATM    9  N1  BES   501      36.472  16.330 193.612  1.00  0.00    -0.248 NA
HETATM   10  H7  BES   501      36.337  15.609 192.832  1.00  0.00     0.131 HD
BRANCH   9  11
HETATM   11  C4  BES   501      37.342  17.360 193.046  1.00  0.00     0.169 C 
BRANCH  11  12
HETATM   12  C13 BES   501      38.670  17.388 193.809  1.00  0.00     0.089 C 
BRANCH  12  13
HETATM   13  C7  BES   501      38.776  18.666 194.662  1.00  0.00     0.031 A 
HETATM   14  C21 BES   501      39.496  19.967 194.260  1.00  0.00     0.143 A 
HETATM   15  N22 BES   501      39.346  20.971 195.417  1.00  0.00    -0.254 N 
HETATM   16  C23 BES   501      38.533  20.292 196.535  1.00  0.00     0.209 A 
HETATM   17  N24 BES   501      38.181  18.867 196.068  1.00  0.00    -0.348 N 
HETATM   18  C1  BES   501      37.385  17.839 196.857  1.00  0.00     0.157 C 
ENDBRANCH  12  13
ENDBRANCH  11  12
BRANCH  11  19
HETATM   19  C5  BES   501      37.616  16.986 191.626  1.00  0.00     0.192 C 
HETATM   20  O1  BES   501      38.697  17.351 191.087  1.00  0.00    -0.647 OA
HETATM   21  O4  BES   501      36.750  16.267 191.036  1.00  0.00    -0.647 OA
ENDBRANCH  11  19
ENDBRANCH   9  11
ENDBRANCH   6   7
ENDBRANCH   5   6
ENDBRANCH   1   5
TORSDOF 7
ENDMDL
MODEL 4
REMARK VINA RESULT:     0.000      9.725     11.989
REMARK INTER + INTRA:          -1.244
REMARK INTER:                   0.000
REMARK INTRA:                  -1.244
REMARK UNBOUND:                -1.245
REMARK  7 active torsions:
REMARK  status: ('A' for Active; 'I' for Inactive)
REMARK    1  A    between atoms: N2_1  and  C1_2 
REMARK    2  A    between atoms: C1_2  and  C2_3 
REMARK    3  A    between atoms: C2_3  and  C3_4 
REMARK       I    between atoms: C3_4  and  N1_6 
REMARK    4  A    between atoms: N1_6  and  C4_7 
REMARK    5  A    between atoms: C4_7  and  C13_8 
REMARK    6  A    between atoms: C4_7  and  C5_10 
REMARK    7  A    between atoms: C13_8  and  C7_9 
ROOT
HETATM    1  N2  BES   501      36.142  21.282 198.826  1.00  0.00    -0.079 N 
HETATM    2  H1  BES   501      35.693  21.282 197.855  1.00  0.00     0.274 HD
HETATM    3  H2  BES   501      36.591  22.236 199.010  1.00  0.00     0.274 HD
HETATM    4  H1  BES   501      35.391  21.094 199.565  1.00  0.00     0.274 HD
ENDROOT
BRANCH   1   5
HETATM    5  C1  BES   501      37.174  20.230 198.892  1.00  0.00     0.238 C 
BRANCH   5   6
HETATM    6  C2  BES   501      36.872  19.169 199.906  1.00  0.00     0.123 C 
BRANCH   6   7
HETATM    7  C3  BES   501      35.600  19.525 200.621  1.00  0.00     0.199 C 
HETATM    8  O3  BES   501      34.591  18.951 200.279  1.00  0.00    -0.280 OA
HETATM    9  N1  BES   501      35.638  20.533 201.688  1.00  0.00    -0.248 NA
HETATM   10  H7  BES   501      36.037  21.418 201.236  1.00  0.00     0.131 HD
BRANCH   9  11
HETATM   11  C4  BES   501      34.472  20.976 202.453  1.00  0.00     0.169 C 
BRANCH  11  12
HETATM   12  C13 BES   501      34.715  20.737 203.946  1.00  0.00     0.089 C 
BRANCH  12  13
HETATM   13  C7  BES   501      33.826  19.589 204.461  1.00  0.00     0.031 A 
HETATM   14  C21 BES   501      32.465  19.744 205.166  1.00  0.00     0.143 A 
HETATM   15  N22 BES   501      31.940  18.336 205.501  1.00  0.00    -0.254 N 
HETATM   16  C23 BES   501      32.976  17.310 205.004  1.00  0.00     0.209 A 
HETATM   17  N24 BES   501      34.141  18.086 204.361  1.00  0.00    -0.348 N 
HETATM   18  C1  BES   501      35.385  17.473 203.737  1.00  0.00     0.157 C 
ENDBRANCH  12  13
ENDBRANCH  11  12
BRANCH  11  19
HETATM   19  C5  BES   501      34.317  22.444 202.225  1.00  0.00     0.192 C 
HETATM   20  O1  BES   501      33.778  23.156 203.116  1.00  0.00    -0.647 OA
HETATM   21  O4  BES   501      34.787  22.918 201.143  1.00  0.00    -0.647 OA
ENDBRANCH  11  19
ENDBRANCH   9  11
ENDBRANCH   6   7
ENDBRANCH   5   6
ENDBRANCH   1   5
TORSDOF 7
ENDMDL
MODEL 5
REMARK VINA RESULT:     0.000      8.183     10.734
REMARK INTER + INTRA:          -1.244
REMARK INTER:                   0.000
REMARK INTRA:                  -1.244
REMARK UNBOUND:                -1.245
REMARK  7 active torsions:
REMARK  status: ('A' for Active; 'I' for Inactive)
REMARK    1  A    between atoms: N2_1  and  C1_2 
REMARK    2  A    between atoms: C1_2  and  C2_3 
REMARK    3  A    between atoms: C2_3  and  C3_4 
REMARK       I    between atoms: C3_4  and  N1_6 
REMARK    4  A    between atoms: N1_6  and  C4_7 
REMARK    5  A    between atoms: C4_7  and  C13_8 
REMARK    6  A    between atoms: C4_7  and  C5_10 
REMARK    7  A    between atoms: C13_8  and  C7_9 
ROOT
HETATM    1  N2  BES   501      36.434  19.858 197.382  1.00  0.00    -0.079 N 
HETATM    2  H1  BES   501      36.627  19.517 196.387  1.00  0.00     0.274 HD
HETATM    3  H2  BES   501      35.495  19.469 197.716  1.00  0.00     0.274 HD
HETATM    4  H1  BES   501      37.213  19.517 198.032  1.00  0.00     0.274 HD
ENDROOT
BRANCH   1   5
HETATM    5  C1  BES   501      36.391  21.333 197.398  1.00  0.00     0.238 C 
BRANCH   5   6
HETATM    6  C2  BES   501      35.850  21.895 198.676  1.00  0.00     0.123 C 
BRANCH   6   7
HETATM    7  C3  BES   501      35.443  20.762 199.574  1.00  0.00     0.199 C 
HETATM    8  O3  BES   501      36.199  20.464 200.471  1.00  0.00    -0.280 OA
HETATM    9  N1  BES   501      34.165  20.080 199.331  1.00  0.00    -0.248 NA
HETATM   10  H7  BES   501      34.218  19.719 198.324  1.00  0.00     0.131 HD
BRANCH   9  11
HETATM   11  C4  BES   501      33.659  18.959 200.123  1.00  0.00     0.169 C 
BRANCH  11  12
HETATM   12  C13 BES   501      32.291  19.319 200.710  1.00  0.00     0.089 C 
BRANCH  12  13
HETATM   13  C7  BES   501      32.394  19.524 202.233  1.00  0.00     0.031 A 
HETATM   14  C21 BES   501      32.079  18.470 203.312  1.00  0.00     0.143 A 
HETATM   15  N22 BES   501      32.320  19.114 204.689  1.00  0.00    -0.254 N 
HETATM   16  C23 BES   501      32.784  20.565 204.464  1.00  0.00     0.209 A 
HETATM   17  N24 BES   501      32.830  20.818 202.945  1.00  0.00    -0.348 N 
HETATM   18  C1  BES   501      33.234  22.118 202.268  1.00  0.00     0.157 C 
ENDBRANCH  12  13
ENDBRANCH  11  12
BRANCH  11  19
HETATM   19  C5  BES   501      33.489  17.797 199.199  1.00  0.00     0.192 C 
HETATM   20  O1  BES   501      32.618  16.922 199.457  1.00  0.00    -0.647 OA
HETATM   21  O4  BES   501      34.215  17.772 198.156  1.00  0.00    -0.647 OA
ENDBRANCH  11  19
ENDBRANCH   9  11
ENDBRANCH   6   7
ENDBRANCH   5   6
ENDBRANCH   1   5
TORSDOF 7
ENDMDL
MODEL 6
REMARK VINA RESULT:     0.000     12.579     14.347
REMARK INTER + INTRA:          -1.244
REMARK INTER:                   0.000
REMARK INTRA:                  -1.244
REMARK UNBOUND:                -1.245
REMARK  7 active torsions:
REMARK  status: ('A' for Active; 'I' for Inactive)
REMARK    1  A    between atoms: N2_1  and  C1_2 
REMARK    2  A    between atoms: C1_2  and  C2_3 
REMARK    3  A    between atoms: C2_3  and  C3_4 
REMARK       I    between atoms: C3_4  and  N1_6 
REMARK    4  A    between atoms: N1_6  and  C4_7 
REMARK    5  A    between atoms: C4_7  and  C13_8 
REMARK    6  A    between atoms: C4_7  and  C5_10 
REMARK    7  A    between atoms: C13_8  and  C7_9 
ROOT
HETATM    1  N2  BES   501      40.302   9.746 198.120  1.00  0.00    -0.079 N 
HETATM    2  H1  BES   501      39.731  10.434 198.708  1.00  0.00     0.274 HD
HETATM    3  H2  BES   501      41.068   9.309 198.727  1.00  0.00     0.274 HD
HETATM    4  H1  BES   501      39.659   8.976 197.749  1.00  0.00     0.274 HD
ENDROOT
BRANCH   1   5
HETATM    5  C1  BES   501      40.919  10.461 196.986  1.00  0.00     0.238 C 
BRANCH   5   6
HETATM    6  C2  BES   501      42.308  10.941 197.276  1.00  0.00     0.123 C 
BRANCH   6   7
HETATM    7  C3  BES   501      42.655  10.603 198.697  1.00  0.00     0.199 C 
HETATM    8  O3  BES   501      43.363   9.640 198.883  1.00  0.00    -0.280 OA
HETATM    9  N1  BES   501      42.132  11.446 199.781  1.00  0.00    -0.248 NA
HETATM   10  H7  BES   501      41.067  11.426 199.673  1.00  0.00     0.131 HD
BRANCH   9  11
HETATM   11  C4  BES   501      42.385  11.220 201.204  1.00  0.00     0.169 C 
BRANCH  11  12
HETATM   12  C13 BES   501      43.046  12.462 201.812  1.00  0.00     0.089 C 
BRANCH  12  13
HETATM   13  C7  BES   501      44.520  12.176 202.153  1.00  0.00     0.031 A 
HETATM   14  C21 BES   501      45.067  11.761 203.532  1.00  0.00     0.143 A 
HETATM   15  N22 BES   501      46.591  11.586 203.406  1.00  0.00    -0.254 N 
HETATM   16  C23 BES   501      46.988  11.892 201.950  1.00  0.00     0.209 A 
HETATM   17  N24 BES   501      45.707  12.257 201.176  1.00  0.00    -0.348 N 
HETATM   18  C1  BES   501      45.629  12.631 199.704  1.00  0.00     0.157 C 
ENDBRANCH  12  13
ENDBRANCH  11  12
BRANCH  11  19
HETATM   19  C5  BES   501      41.064  11.010 201.867  1.00  0.00     0.192 C 
HETATM   20  O1  BES   501      40.927  11.313 203.084  1.00  0.00    -0.647 OA
HETATM   21  O4  BES   501      40.114  10.570 201.146  1.00  0.00    -0.647 OA
ENDBRANCH  11  19
ENDBRANCH   9  11
ENDBRANCH   6   7
ENDBRANCH   5   6
ENDBRANCH   1   5
TORSDOF 7
ENDMDL
MODEL 7
REMARK VINA RESULT:     0.000     10.721     12.232
REMARK INTER + INTRA:          -1.244
REMARK INTER:                   0.000
REMARK INTRA:                  -1.244
REMARK UNBOUND:                -1.245
REMARK  7 active torsions:
REMARK  status: ('A' for Active; 'I' for Inactive)
REMARK    1  A    between atoms: N2_1  and  C1_2 
REMARK    2  A    between atoms: C1_2  and  C2_3 
REMARK    3  A    between atoms: C2_3  and  C3_4 
REMARK       I    between atoms: C3_4  and  N1_6 
REMARK    4  A    between atoms: N1_6  and  C4_7 
REMARK    5  A    between atoms: C4_7  and  C13_8 
REMARK    6  A    between atoms: C4_7  and  C5_10 
REMARK    7  A    between atoms: C13_8  and  C7_9 
ROOT
HETATM    1  N2  BES   501      37.461   8.583 195.113  1.00  0.00    -0.079 N 
HETATM    2  H1  BES   501      38.107   7.734 195.210  1.00  0.00     0.274 HD
HETATM    3  H2  BES   501      36.442   8.262 195.168  1.00  0.00     0.274 HD
HETATM    4  H1  BES   501      37.661   9.273 195.906  1.00  0.00     0.274 HD
ENDROOT
BRANCH   1   5
HETATM    5  C1  BES   501      37.703   9.240 193.814  1.00  0.00     0.238 C 
BRANCH   5   6
HETATM    6  C2  BES   501      39.136   9.619 193.602  1.00  0.00     0.123 C 
BRANCH   6   7
HETATM    7  C3  BES   501      39.922   9.265 194.831  1.00  0.00     0.199 C 
HETATM    8  O3  BES   501      40.585   8.253 194.796  1.00  0.00    -0.280 OA
HETATM    9  N1  BES   501      39.857  10.151 196.001  1.00  0.00    -0.248 NA
HETATM   10  H7  BES   501      38.820  10.209 196.261  1.00  0.00     0.131 HD
BRANCH   9  11
HETATM   11  C4  BES   501      40.564   9.916 197.261  1.00  0.00     0.169 C 
BRANCH  11  12
HETATM   12  C13 BES   501      41.475  11.108 197.570  1.00  0.00     0.089 C 
BRANCH  12  13
HETATM   13  C7  BES   501      42.955  10.714 197.402  1.00  0.00     0.031 A 
HETATM   14  C21 BES   501      43.907  10.269 198.528  1.00  0.00     0.143 A 
HETATM   15  N22 BES   501      45.282   9.978 197.901  1.00  0.00    -0.254 N 
HETATM   16  C23 BES   501      45.181  10.241 196.386  1.00  0.00     0.209 A 
HETATM   17  N24 BES   501      43.742  10.696 196.079  1.00  0.00    -0.348 N 
HETATM   18  C1  BES   501      43.195  11.064 194.708  1.00  0.00     0.157 C 
ENDBRANCH  12  13
ENDBRANCH  11  12
BRANCH  11  19
HETATM   19  C5  BES   501      39.536   9.810 198.339  1.00  0.00     0.192 C 
HETATM   20  O1  BES   501      39.841  10.135 199.519  1.00  0.00    -0.647 OA
HETATM   21  O4  BES   501      38.371   9.434 197.998  1.00  0.00    -0.647 OA
ENDBRANCH  11  19
ENDBRANCH   9  11
ENDBRANCH   6   7
ENDBRANCH   5   6
ENDBRANCH   1   5
TORSDOF 7
ENDMDL
MODEL 8
REMARK VINA RESULT:     0.000      3.265      6.311
REMARK INTER + INTRA:          -1.244
REMARK INTER:                   0.000
REMARK INTRA:                  -1.244
REMARK UNBOUND:                -1.245
REMARK  7 active torsions:
REMARK  status: ('A' for Active; 'I' for Inactive)
REMARK    1  A    between atoms: N2_1  and  C1_2 
REMARK    2  A    between atoms: C1_2  and  C2_3 
REMARK    3  A    between atoms: C2_3  and  C3_4 
REMARK       I    between atoms: C3_4  and  N1_6 
REMARK    4  A    between atoms: N1_6  and  C4_7 
REMARK    5  A    between atoms: C4_7  and  C13_8 
REMARK    6  A    between atoms: C4_7  and  C5_10 
REMARK    7  A    between atoms: C13_8  and  C7_9 
ROOT
HETATM    1  N2  BES   501      36.875  16.176 191.186  1.00  0.00    -0.079 N 
HETATM    2  H1  BES   501      36.547  15.604 190.343  1.00  0.00     0.274 HD
HETATM    3  H2  BES   501      36.502  17.176 191.105  1.00  0.00     0.274 HD
HETATM    4  H1  BES   501      36.503  15.729 192.085  1.00  0.00     0.274 HD
ENDROOT
BRANCH   1   5
HETATM    5  C1  BES   501      38.350  16.200 191.222  1.00  0.00     0.238 C 
BRANCH   5   6
HETATM    6  C2  BES   501      38.901  16.727 192.511  1.00  0.00     0.123 C 
BRANCH   6   7
HETATM    7  C3  BES   501      37.762  17.147 193.394  1.00  0.00     0.199 C 
HETATM    8  O3  BES   501      37.441  16.392 194.284  1.00  0.00    -0.280 OA
HETATM    9  N1  BES   501      37.101  18.436 193.146  1.00  0.00    -0.248 NA
HETATM   10  H7  BES   501      36.754  18.391 192.134  1.00  0.00     0.131 HD
BRANCH   9  11
HETATM   11  C4  BES   501      35.976  18.955 193.924  1.00  0.00     0.169 C 
BRANCH  11  12
HETATM   12  C13 BES   501      36.348  20.316 194.520  1.00  0.00     0.089 C 
BRANCH  12  13
HETATM   13  C7  BES   501      36.531  20.205 196.046  1.00  0.00     0.031 A 
HETATM   14  C21 BES   501      35.467  20.531 197.111  1.00  0.00     0.143 A 
HETATM   15  N22 BES   501      36.088  20.277 198.496  1.00  0.00    -0.254 N 
HETATM   16  C23 BES   501      37.535  19.793 198.289  1.00  0.00     0.209 A 
HETATM   17  N24 BES   501      37.808  19.749 196.774  1.00  0.00    -0.348 N 
HETATM   18  C1  BES   501      39.112  19.328 196.113  1.00  0.00     0.157 C 
ENDBRANCH  12  13
ENDBRANCH  11  12
BRANCH  11  19
HETATM   19  C5  BES   501      34.831  19.144 192.984  1.00  0.00     0.192 C 
HETATM   20  O1  BES   501      33.964  20.026 193.234  1.00  0.00    -0.647 OA
HETATM   21  O4  BES   501      34.811  18.423 191.938  1.00  0.00    -0.647 OA
ENDBRANCH  11  19
ENDBRANCH   9  11
ENDBRANCH   6   7
ENDBRANCH   5   6
ENDBRANCH   1   5
TORSDOF 7
ENDMDL
MODEL 9
REMARK VINA RESULT:     0.000      3.726      6.438
REMARK INTER + INTRA:          -1.244
REMARK INTER:                   0.000
REMARK INTRA:                  -1.244
REMARK UNBOUND:                -1.245
REMARK  7 active torsions:
REMARK  status: ('A' for Active; 'I' for Inactive)
REMARK    1  A    between atoms: N2_1  and  C1_2 
REMARK    2  A    between atoms: C1_2  and  C2_3 
REMARK    3  A    between atoms: C2_3  and  C3_4 
REMARK       I    between atoms: C3_4  and  N1_6 
REMARK    4  A    between atoms: N1_6  and  C4_7 
REMARK    5  A    between atoms: C4_7  and  C13_8 
REMARK    6  A    between atoms: C4_7  and  C5_10 
REMARK    7  A    between atoms: C13_8  and  C7_9 
ROOT
HETATM    1  N2  BES   501      37.372  12.841 191.351  1.00  0.00    -0.079 N 
HETATM    2  H1  BES   501      37.592  12.328 190.438  1.00  0.00     0.274 HD
HETATM    3  H2  BES   501      37.256  12.128 192.141  1.00  0.00     0.274 HD
HETATM    4  H1  BES   501      38.176  13.506 191.587  1.00  0.00     0.274 HD
ENDROOT
BRANCH   1   5
HETATM    5  C1  BES   501      36.124  13.612 191.195  1.00  0.00     0.238 C 
BRANCH   5   6
HETATM    6  C2  BES   501      36.356  15.077 190.990  1.00  0.00     0.123 C 
BRANCH   6   7
HETATM    7  C3  BES   501      37.830  15.353 191.062  1.00  0.00     0.199 C 
HETATM    8  O3  BES   501      38.421  15.502 190.016  1.00  0.00    -0.280 OA
HETATM    9  N1  BES   501      38.480  15.431 192.378  1.00  0.00    -0.248 NA
HETATM   10  H7  BES   501      38.282  14.493 192.854  1.00  0.00     0.131 HD
BRANCH   9  11
HETATM   11  C4  BES   501      39.906  15.682 192.585  1.00  0.00     0.169 C 
BRANCH  11  12
HETATM   12  C13 BES   501      40.088  16.931 193.453  1.00  0.00     0.089 C 
BRANCH  12  13
HETATM   13  C7  BES   501      40.656  18.092 192.615  1.00  0.00     0.031 A 
HETATM   14  C21 BES   501      42.139  18.495 192.514  1.00  0.00     0.143 A 
HETATM   15  N22 BES   501      42.239  19.706 191.569  1.00  0.00    -0.254 N 
HETATM   16  C23 BES   501      40.819  20.053 191.085  1.00  0.00     0.209 A 
HETATM   17  N24 BES   501      39.841  19.055 191.733  1.00  0.00    -0.348 N 
HETATM   18  C1  BES   501      38.333  19.026 191.535  1.00  0.00     0.157 C 
ENDBRANCH  12  13
ENDBRANCH  11  12
BRANCH  11  19
HETATM   19  C5  BES   501      40.466  14.507 193.318  1.00  0.00     0.192 C 
HETATM   20  O1  BES   501      41.470  14.665 194.066  1.00  0.00    -0.647 OA
HETATM   21  O4  BES   501      39.865  13.396 193.184  1.00  0.00    -0.647 OA
ENDBRANCH  11  19
ENDBRANCH   9  11
ENDBRANCH   6   7
ENDBRANCH   5   6
ENDBRANCH   1   5
TORSDOF 7
ENDMDL
