MODEL 1
REMARK VINA RESULT:     0.000      0.000      0.000
REMARK INTER + INTRA:          -0.724
REMARK INTER:                   0.000
REMARK INTRA:                  -0.724
REMARK UNBOUND:                -0.724
REMARK  2 active torsions:
REMARK  status: ('A' for Active; 'I' for Inactive)
REMARK    1  A    between atoms: C9_9  and  C13_13 
REMARK    2  A    between atoms: C10_10  and  C14_14 
ROOT
HETATM    1  O1          0      36.384  15.224 197.447  1.00  0.00    -0.380 OA
HETATM    2  O2          0      36.068  19.383 198.102  1.00  0.00    -0.380 OA
HETATM    3  C7          0      35.320  17.250 197.162  1.00  0.00     0.052 C 
HETATM    4  C8          0      36.672  17.570 196.811  1.00  0.00     0.052 C 
HETATM    5  C9          0      35.467  16.096 198.197  1.00  0.00     0.161 C 
HETATM    6  C10         0      37.176  18.420 198.012  1.00  0.00     0.161 C 
HETATM    7  C11         0      37.242  16.142 196.549  1.00  0.00     0.176 C 
HETATM    8  C12         0      34.801  18.653 197.602  1.00  0.00     0.176 C 
ENDROOT
BRANCH   5   9
HETATM    9  C13         0      34.089  15.432 198.514  1.00  0.00    -0.026 A 
HETATM   10  C15         0      33.433  14.796 197.518  1.00  0.00     0.049 A 
HETATM   11  C19         0      32.085  14.274 197.813  1.00  0.00     0.105 A 
HETATM   12  O3          0      31.267  13.615 196.962  1.00  0.00    -0.323 OA
HETATM   13  C23         0      31.519  14.429 198.951  1.00  0.00     0.105 A 
HETATM   14  C25         0      30.031  13.319 197.654  1.00  0.00     0.352 A 
HETATM   15  O5          0      30.283  13.885 198.958  1.00  0.00    -0.323 OA
HETATM   16  C21         0      32.175  15.111 200.057  1.00  0.00     0.040 A 
HETATM   17  C17         0      33.412  15.588 199.844  1.00  0.00     0.012 A 
ENDBRANCH   5   9
BRANCH   6  18
HETATM   18  C14         0      38.557  19.083 197.705  1.00  0.00    -0.026 A 
HETATM   19  C18         0      39.773  18.828 198.548  1.00  0.00     0.012 A 
HETATM   20  C22         0      40.978  19.311 198.200  1.00  0.00     0.040 A 
HETATM   21  C24         0      41.057  20.097 196.976  1.00  0.00     0.105 A 
HETATM   22  O6          0      42.165  20.660 196.452  1.00  0.00    -0.323 OA
HETATM   23  C20         0      40.030  20.334 196.251  1.00  0.00     0.105 A 
HETATM   24  C26         0      41.794  21.338 195.233  1.00  0.00     0.352 A 
HETATM   25  O4          0      40.371  21.079 195.175  1.00  0.00    -0.323 OA
HETATM   26  C16         0      38.688  19.813 196.575  1.00  0.00     0.049 A 
ENDBRANCH   6  18
TORSDOF 2
ENDMDL
MODEL 2
REMARK VINA RESULT:     0.000      5.796      6.852
REMARK INTER + INTRA:          -0.724
REMARK INTER:                   0.000
REMARK INTRA:                  -0.724
REMARK UNBOUND:                -0.724
REMARK  2 active torsions:
REMARK  status: ('A' for Active; 'I' for Inactive)
REMARK    1  A    between atoms: C9_9  and  C13_13 
REMARK    2  A    between atoms: C10_10  and  C14_14 
ROOT
HETATM    1  O1          0      39.756  14.732 200.433  1.00  0.00    -0.380 OA
HETATM    2  O2          0      42.050  13.048 197.314  1.00  0.00    -0.380 OA
HETATM    3  C7          0      41.224  13.152 199.616  1.00  0.00     0.052 C 
HETATM    4  C8          0      41.833  14.377 199.187  1.00  0.00     0.052 C 
HETATM    5  C9          0      39.704  13.485 199.655  1.00  0.00     0.161 C 
HETATM    6  C10         0      41.578  14.399 197.652  1.00  0.00     0.161 C 
HETATM    7  C11         0      41.119  15.394 200.129  1.00  0.00     0.176 C 
HETATM    8  C12         0      41.797  12.163 198.555  1.00  0.00     0.176 C 
ENDROOT
BRANCH   5   9
HETATM    9  C13         0      38.886  12.348 200.346  1.00  0.00    -0.026 A 
HETATM   10  C15         0      39.119  12.085 201.651  1.00  0.00     0.049 A 
HETATM   11  C19         0      38.416  10.936 202.252  1.00  0.00     0.105 A 
HETATM   12  O3          0      38.511  10.506 203.530  1.00  0.00    -0.323 OA
HETATM   13  C23         0      37.631  10.179 201.581  1.00  0.00     0.105 A 
HETATM   14  C25         0      37.682   9.329 203.679  1.00  0.00     0.352 A 
HETATM   15  O5          0      37.135   9.187 202.350  1.00  0.00    -0.323 OA
HETATM   16  C21         0      37.348  10.411 200.171  1.00  0.00     0.040 A 
HETATM   17  C17         0      37.950  11.457 199.582  1.00  0.00     0.012 A 
ENDBRANCH   5   9
BRANCH   6  18
HETATM   18  C14         0      42.389  15.539 196.954  1.00  0.00    -0.026 A 
HETATM   19  C18         0      41.722  16.626 196.162  1.00  0.00     0.012 A 
HETATM   20  C22         0      42.423  17.661 195.670  1.00  0.00     0.040 A 
HETATM   21  C24         0      43.857  17.684 195.930  1.00  0.00     0.105 A 
HETATM   22  O6          0      44.731  18.631 195.533  1.00  0.00    -0.323 OA
HETATM   23  C20         0      44.444  16.760 196.592  1.00  0.00     0.105 A 
HETATM   24  C26         0      46.043  18.264 196.010  1.00  0.00     0.352 A 
HETATM   25  O4          0      45.768  17.018 196.694  1.00  0.00    -0.323 OA
HETATM   26  C16         0      43.721  15.612 197.171  1.00  0.00     0.049 A 
ENDBRANCH   6  18
TORSDOF 2
ENDMDL
MODEL 3
REMARK VINA RESULT:     0.000      5.357      6.336
REMARK INTER + INTRA:          -0.724
REMARK INTER:                   0.000
REMARK INTRA:                  -0.724
REMARK UNBOUND:                -0.724
REMARK  2 active torsions:
REMARK  status: ('A' for Active; 'I' for Inactive)
REMARK    1  A    between atoms: C9_9  and  C13_13 
REMARK    2  A    between atoms: C10_10  and  C14_14 
ROOT
HETATM    1  O1          0      38.832  13.661 196.780  1.00  0.00    -0.380 OA
HETATM    2  O2          0      39.070  14.797 192.721  1.00  0.00    -0.380 OA
HETATM    3  C7          0      38.011  13.682 194.625  1.00  0.00     0.052 C 
HETATM    4  C8          0      39.369  13.271 194.424  1.00  0.00     0.052 C 
HETATM    5  C9          0      38.075  14.568 195.903  1.00  0.00     0.161 C 
HETATM    6  C10         0      40.044  14.520 193.787  1.00  0.00     0.161 C 
HETATM    7  C11         0      39.743  12.811 195.866  1.00  0.00     0.176 C 
HETATM    8  C12         0      37.696  14.312 193.234  1.00  0.00     0.176 C 
ENDROOT
BRANCH   5   9
HETATM    9  C13         0      36.647  14.908 196.437  1.00  0.00    -0.026 A 
HETATM   10  C15         0      35.857  13.897 196.861  1.00  0.00     0.049 A 
HETATM   11  C19         0      34.475  14.230 197.254  1.00  0.00     0.105 A 
HETATM   12  O3          0      33.530  13.372 197.700  1.00  0.00    -0.323 OA
HETATM   13  C23         0      34.004  15.418 197.181  1.00  0.00     0.105 A 
HETATM   14  C25         0      32.311  14.116 197.935  1.00  0.00     0.352 A 
HETATM   15  O5          0      32.712  15.456 197.573  1.00  0.00    -0.323 OA
HETATM   16  C21         0      34.807  16.545 196.726  1.00  0.00     0.040 A 
HETATM   17  C17         0      36.079  16.296 196.373  1.00  0.00     0.012 A 
ENDBRANCH   5   9
BRANCH   6  18
HETATM   18  C14         0      41.476  14.188 193.257  1.00  0.00    -0.026 A 
HETATM   19  C18         0      42.699  14.907 193.749  1.00  0.00     0.012 A 
HETATM   20  C22         0      43.931  14.529 193.371  1.00  0.00     0.040 A 
HETATM   21  C24         0      44.034  13.397 192.459  1.00  0.00     0.105 A 
HETATM   22  O6          0      45.171  12.860 191.968  1.00  0.00    -0.323 OA
HETATM   23  C20         0      43.004  12.780 192.019  1.00  0.00     0.105 A 
HETATM   24  C26         0      44.815  11.755 191.111  1.00  0.00     0.352 A 
HETATM   25  O4          0      43.370  11.771 191.196  1.00  0.00    -0.323 OA
HETATM   26  C16         0      41.629  13.141 192.416  1.00  0.00     0.049 A 
ENDBRANCH   6  18
TORSDOF 2
ENDMDL
MODEL 4
REMARK VINA RESULT:     0.000      6.160      7.223
REMARK INTER + INTRA:          -0.724
REMARK INTER:                   0.000
REMARK INTRA:                  -0.724
REMARK UNBOUND:                -0.724
REMARK  2 active torsions:
REMARK  status: ('A' for Active; 'I' for Inactive)
REMARK    1  A    between atoms: C9_9  and  C13_13 
REMARK    2  A    between atoms: C10_10  and  C14_14 
ROOT
HETATM    1  O1          0      42.906  15.375 193.385  1.00  0.00    -0.380 OA
HETATM    2  O2          0      40.747  17.794 196.089  1.00  0.00    -0.380 OA
HETATM    3  C7          0      41.104  16.709 193.923  1.00  0.00     0.052 C 
HETATM    4  C8          0      42.211  17.524 194.327  1.00  0.00     0.052 C 
HETATM    5  C9          0      41.627  15.255 194.102  1.00  0.00     0.161 C 
HETATM    6  C10         0      42.166  17.468 195.881  1.00  0.00     0.161 C 
HETATM    7  C11         0      43.369  16.841 193.538  1.00  0.00     0.176 C 
HETATM    8  C12         0      39.984  17.273 194.851  1.00  0.00     0.176 C 
ENDROOT
BRANCH   5   9
HETATM    9  C13         0      40.650  14.212 193.470  1.00  0.00    -0.026 A 
HETATM   10  C15         0      40.439  14.249 192.136  1.00  0.00     0.049 A 
HETATM   11  C19         0      39.429  13.329 191.579  1.00  0.00     0.105 A 
HETATM   12  O3          0      39.069  13.211 190.281  1.00  0.00    -0.323 OA
HETATM   13  C23         0      38.741  12.536 192.310  1.00  0.00     0.105 A 
HETATM   14  C25         0      38.021  12.218 190.187  1.00  0.00     0.352 A 
HETATM   15  O5          0      37.870  11.820 191.567  1.00  0.00    -0.323 OA
HETATM   16  C21         0      38.920  12.458 193.753  1.00  0.00     0.040 A 
HETATM   17  C17         0      39.842  13.263 194.306  1.00  0.00     0.012 A 
ENDBRANCH   5   9
BRANCH   6  18
HETATM   18  C14         0      43.146  18.504 196.520  1.00  0.00    -0.026 A 
HETATM   19  C18         0      44.254  18.092 197.445  1.00  0.00     0.012 A 
HETATM   20  C22         0      45.159  18.981 197.890  1.00  0.00     0.040 A 
HETATM   21  C24         0      45.018  20.361 197.445  1.00  0.00     0.105 A 
HETATM   22  O6          0      45.819  21.397 197.769  1.00  0.00    -0.323 OA
HETATM   23  C20         0      44.073  20.733 196.667  1.00  0.00     0.105 A 
HETATM   24  C26         0      45.321  22.578 197.105  1.00  0.00     0.352 A 
HETATM   25  O4          0      44.168  22.056 196.404  1.00  0.00    -0.323 OA
HETATM   26  C16         0      43.064  19.797 196.134  1.00  0.00     0.049 A 
ENDBRANCH   6  18
TORSDOF 2
ENDMDL
MODEL 5
REMARK VINA RESULT:     0.000      4.125      7.789
REMARK INTER + INTRA:          -0.724
REMARK INTER:                   0.000
REMARK INTRA:                  -0.724
REMARK UNBOUND:                -0.724
REMARK  2 active torsions:
REMARK  status: ('A' for Active; 'I' for Inactive)
REMARK    1  A    between atoms: C9_9  and  C13_13 
REMARK    2  A    between atoms: C10_10  and  C14_14 
ROOT
HETATM    1  O1          0      35.970  15.027 198.983  1.00  0.00    -0.380 OA
HETATM    2  O2          0      38.301  15.396 195.482  1.00  0.00    -0.380 OA
HETATM    3  C7          0      37.381  16.214 197.599  1.00  0.00     0.052 C 
HETATM    4  C8          0      36.370  15.770 196.686  1.00  0.00     0.052 C 
HETATM    5  C9          0      37.410  15.106 198.691  1.00  0.00     0.161 C 
HETATM    6  C10         0      37.080  14.665 195.853  1.00  0.00     0.161 C 
HETATM    7  C11         0      35.227  15.407 197.683  1.00  0.00     0.176 C 
HETATM    8  C12         0      38.582  16.401 196.622  1.00  0.00     0.176 C 
ENDROOT
BRANCH   5   9
HETATM    9  C13         0      38.276  15.533 199.918  1.00  0.00    -0.026 A 
HETATM   10  C15         0      37.885  16.603 200.646  1.00  0.00     0.049 A 
HETATM   11  C19         0      38.777  17.054 201.730  1.00  0.00     0.105 A 
HETATM   12  O3          0      38.573  18.096 202.566  1.00  0.00    -0.323 OA
HETATM   13  C23         0      39.901  16.492 201.978  1.00  0.00     0.105 A 
HETATM   14  C25         0      39.715  18.203 203.450  1.00  0.00     0.352 A 
HETATM   15  O5          0      40.538  17.106 202.998  1.00  0.00    -0.323 OA
HETATM   16  C21         0      40.376  15.341 201.223  1.00  0.00     0.040 A 
HETATM   17  C17         0      39.590  14.881 200.236  1.00  0.00     0.012 A 
ENDBRANCH   5   9
BRANCH   6  18
HETATM   18  C14         0      36.216  14.228 194.627  1.00  0.00    -0.026 A 
HETATM   19  C18         0      35.764  12.810 194.430  1.00  0.00     0.012 A 
HETATM   20  C22         0      34.923  12.476 193.436  1.00  0.00     0.040 A 
HETATM   21  C24         0      34.474  13.543 192.552  1.00  0.00     0.105 A 
HETATM   22  O6          0      33.631  13.420 191.506  1.00  0.00    -0.323 OA
HETATM   23  C20         0      34.858  14.755 192.696  1.00  0.00     0.105 A 
HETATM   24  C26         0      33.452  14.723 190.913  1.00  0.00     0.352 A 
HETATM   25  O4          0      34.296  15.546 191.753  1.00  0.00    -0.323 OA
HETATM   26  C16         0      35.763  15.180 193.781  1.00  0.00     0.049 A 
ENDBRANCH   6  18
TORSDOF 2
ENDMDL
MODEL 6
REMARK VINA RESULT:     0.000      4.928      6.230
REMARK INTER + INTRA:          -0.724
REMARK INTER:                   0.000
REMARK INTRA:                  -0.724
REMARK UNBOUND:                -0.724
REMARK  2 active torsions:
REMARK  status: ('A' for Active; 'I' for Inactive)
REMARK    1  A    between atoms: C9_9  and  C13_13 
REMARK    2  A    between atoms: C10_10  and  C14_14 
ROOT
HETATM    1  O1          0      36.526  13.745 193.590  1.00  0.00    -0.380 OA
HETATM    2  O2          0      39.267  11.998 196.285  1.00  0.00    -0.380 OA
HETATM    3  C7          0      37.015  12.474 195.451  1.00  0.00     0.052 C 
HETATM    4  C8          0      37.784  13.660 195.688  1.00  0.00     0.052 C 
HETATM    5  C9          0      36.956  12.373 193.900  1.00  0.00     0.161 C 
HETATM    6  C10         0      39.252  13.206 195.446  1.00  0.00     0.161 C 
HETATM    7  C11         0      37.084  14.652 194.709  1.00  0.00     0.176 C 
HETATM    8  C12         0      37.827  11.438 196.287  1.00  0.00     0.176 C 
ENDROOT
BRANCH   5   9
HETATM    9  C13         0      35.942  11.279 193.435  1.00  0.00    -0.026 A 
HETATM   10  C15         0      34.633  11.442 193.733  1.00  0.00     0.049 A 
HETATM   11  C19         0      33.712  10.344 193.383  1.00  0.00     0.105 A 
HETATM   12  O3          0      32.378  10.307 193.596  1.00  0.00    -0.323 OA
HETATM   13  C23         0      34.111   9.253 192.844  1.00  0.00     0.105 A 
HETATM   14  C25         0      31.877   9.031 193.133  1.00  0.00     0.352 A 
HETATM   15  O5          0      33.082   8.402 192.648  1.00  0.00    -0.323 OA
HETATM   16  C21         0      35.508   9.021 192.506  1.00  0.00     0.040 A 
HETATM   17  C17         0      36.385   9.999 192.789  1.00  0.00     0.012 A 
ENDBRANCH   5   9
BRANCH   6  18
HETATM   18  C14         0      40.272  14.298 195.902  1.00  0.00    -0.026 A 
HETATM   19  C18         0      41.266  14.909 194.958  1.00  0.00     0.012 A 
HETATM   20  C22         0      42.054  15.929 195.337  1.00  0.00     0.040 A 
HETATM   21  C24         0      41.910  16.415 196.703  1.00  0.00     0.105 A 
HETATM   22  O6          0      42.596  17.426 197.274  1.00  0.00    -0.323 OA
HETATM   23  C20         0      41.077  15.898 197.526  1.00  0.00     0.105 A 
HETATM   24  C26         0      42.135  17.575 198.633  1.00  0.00     0.352 A 
HETATM   25  O4          0      41.138  16.529 198.721  1.00  0.00    -0.323 OA
HETATM   26  C16         0      40.176  14.790 197.157  1.00  0.00     0.049 A 
ENDBRANCH   6  18
TORSDOF 2
ENDMDL
MODEL 7
REMARK VINA RESULT:     0.000      8.528     10.305
REMARK INTER + INTRA:          -0.724
REMARK INTER:                   0.000
REMARK INTRA:                  -0.724
REMARK UNBOUND:                -0.724
REMARK  2 active torsions:
REMARK  status: ('A' for Active; 'I' for Inactive)
REMARK    1  A    between atoms: C9_9  and  C13_13 
REMARK    2  A    between atoms: C10_10  and  C14_14 
ROOT
HETATM    1  O1          0      40.295   8.412 196.880  1.00  0.00    -0.380 OA
HETATM    2  O2          0      42.114  12.036 198.054  1.00  0.00    -0.380 OA
HETATM    3  C7          0      41.538  10.301 196.427  1.00  0.00     0.052 C 
HETATM    4  C8          0      42.198   9.779 197.587  1.00  0.00     0.052 C 
HETATM    5  C9          0      40.062   9.837 196.598  1.00  0.00     0.161 C 
HETATM    6  C10         0      41.792  10.765 198.720  1.00  0.00     0.161 C 
HETATM    7  C11         0      41.670   8.312 197.579  1.00  0.00     0.176 C 
HETATM    8  C12         0      41.916  11.810 196.539  1.00  0.00     0.176 C 
ENDROOT
BRANCH   5   9
HETATM    9  C13         0      39.228  10.091 195.302  1.00  0.00    -0.026 A 
HETATM   10  C15         0      39.574   9.437 194.171  1.00  0.00     0.049 A 
HETATM   11  C19         0      38.843   9.777 192.935  1.00  0.00     0.105 A 
HETATM   12  O3          0      39.036   9.245 191.708  1.00  0.00    -0.323 OA
HETATM   13  C23         0      37.930  10.674 192.898  1.00  0.00     0.105 A 
HETATM   14  C25         0      38.130   9.891 190.783  1.00  0.00     0.352 A 
HETATM   15  O5          0      37.435  10.813 191.650  1.00  0.00    -0.323 OA
HETATM   16  C21         0      37.520  11.413 194.083  1.00  0.00     0.040 A 
HETATM   17  C17         0      38.144  11.127 195.238  1.00  0.00     0.012 A 
ENDBRANCH   5   9
BRANCH   6  18
HETATM   18  C14         0      42.618  10.513 200.022  1.00  0.00    -0.026 A 
HETATM   19  C18         0      41.966  10.171 201.330  1.00  0.00     0.012 A 
HETATM   20  C22         0      42.697   9.840 202.409  1.00  0.00     0.040 A 
HETATM   21  C24         0      44.146   9.834 202.261  1.00  0.00     0.105 A 
HETATM   22  O6          0      45.051   9.527 203.213  1.00  0.00    -0.323 OA
HETATM   23  C20         0      44.720  10.135 201.157  1.00  0.00     0.105 A 
HETATM   24  C26         0      46.369   9.642 202.638  1.00  0.00     0.352 A 
HETATM   25  O4          0      46.064  10.050 201.283  1.00  0.00    -0.323 OA
HETATM   26  C16         0      43.967  10.486 199.938  1.00  0.00     0.049 A 
ENDBRANCH   6  18
TORSDOF 2
ENDMDL
MODEL 8
REMARK VINA RESULT:     0.000      6.915     11.553
REMARK INTER + INTRA:          -0.724
REMARK INTER:                   0.000
REMARK INTRA:                  -0.724
REMARK UNBOUND:                -0.724
REMARK  2 active torsions:
REMARK  status: ('A' for Active; 'I' for Inactive)
REMARK    1  A    between atoms: C9_9  and  C13_13 
REMARK    2  A    between atoms: C10_10  and  C14_14 
ROOT
HETATM    1  O1          0      44.309  13.843 195.528  1.00  0.00    -0.380 OA
HETATM    2  O2          0      40.306  13.079 194.421  1.00  0.00    -0.380 OA
HETATM    3  C7          0      42.195  14.550 194.934  1.00  0.00     0.052 C 
HETATM    4  C8          0      41.914  13.616 195.985  1.00  0.00     0.052 C 
HETATM    5  C9          0      43.513  14.014 194.303  1.00  0.00     0.161 C 
HETATM    6  C10         0      41.314  12.389 195.240  1.00  0.00     0.161 C 
HETATM    7  C11         0      43.313  13.528 196.668  1.00  0.00     0.176 C 
HETATM    8  C12         0      40.853  14.497 194.141  1.00  0.00     0.176 C 
ENDROOT
BRANCH   5   9
HETATM    9  C13         0      44.125  15.041 193.297  1.00  0.00    -0.026 A 
HETATM   10  C15         0      44.533  16.241 193.766  1.00  0.00     0.049 A 
HETATM   11  C19         0      45.003  17.235 192.781  1.00  0.00     0.105 A 
HETATM   12  O3          0      45.447  18.484 193.041  1.00  0.00    -0.323 OA
HETATM   13  C23         0      45.009  17.008 191.521  1.00  0.00     0.105 A 
HETATM   14  C25         0      45.771  19.124 191.783  1.00  0.00     0.352 A 
HETATM   15  O5          0      45.459  18.080 190.835  1.00  0.00    -0.323 OA
HETATM   16  C21         0      44.576  15.736 190.959  1.00  0.00     0.040 A 
HETATM   17  C17         0      44.155  14.792 191.817  1.00  0.00     0.012 A 
ENDBRANCH   5   9
BRANCH   6  18
HETATM   18  C14         0      40.705  11.354 196.241  1.00  0.00    -0.026 A 
HETATM   19  C18         0      41.180   9.932 196.308  1.00  0.00     0.012 A 
HETATM   20  C22         0      40.730   9.090 197.254  1.00  0.00     0.040 A 
HETATM   21  C24         0      39.757   9.609 198.206  1.00  0.00     0.105 A 
HETATM   22  O6          0      39.191   8.934 199.227  1.00  0.00    -0.323 OA
HETATM   23  C20         0      39.332  10.815 198.156  1.00  0.00     0.105 A 
HETATM   24  C26         0      38.294   9.828 199.919  1.00  0.00     0.352 A 
HETATM   25  O4          0      38.442  11.045 199.149  1.00  0.00    -0.323 OA
HETATM   26  C16         0      39.806  11.787 197.153  1.00  0.00     0.049 A 
ENDBRANCH   6  18
TORSDOF 2
ENDMDL
MODEL 9
REMARK VINA RESULT:     0.000      4.472     10.664
REMARK INTER + INTRA:          -0.724
REMARK INTER:                   0.000
REMARK INTRA:                  -0.724
REMARK UNBOUND:                -0.724
REMARK  2 active torsions:
REMARK  status: ('A' for Active; 'I' for Inactive)
REMARK    1  A    between atoms: C9_9  and  C13_13 
REMARK    2  A    between atoms: C10_10  and  C14_14 
ROOT
HETATM    1  O1          0      41.418  16.599 196.842  1.00  0.00    -0.380 OA
HETATM    2  O2          0      40.760  13.406 194.159  1.00  0.00    -0.380 OA
HETATM    3  C7          0      41.310  15.727 194.710  1.00  0.00     0.052 C 
HETATM    4  C8          0      40.061  15.302 195.271  1.00  0.00     0.052 C 
HETATM    5  C9          0      42.263  15.804 195.937  1.00  0.00     0.161 C 
HETATM    6  C10         0      40.254  13.774 195.490  1.00  0.00     0.161 C 
HETATM    7  C11         0      39.950  16.274 196.485  1.00  0.00     0.176 C 
HETATM    8  C12         0      41.511  14.639 193.611  1.00  0.00     0.176 C 
ENDROOT
BRANCH   5   9
HETATM    9  C13         0      43.614  16.496 195.571  1.00  0.00    -0.026 A 
HETATM   10  C15         0      43.593  17.790 195.180  1.00  0.00     0.049 A 
HETATM   11  C19         0      44.865  18.389 194.733  1.00  0.00     0.105 A 
HETATM   12  O3          0      45.056  19.656 194.303  1.00  0.00    -0.323 OA
HETATM   13  C23         0      45.958  17.726 194.678  1.00  0.00     0.105 A 
HETATM   14  C25         0      46.447  19.806 193.930  1.00  0.00     0.352 A 
HETATM   15  O5          0      46.969  18.490 194.213  1.00  0.00    -0.323 OA
HETATM   16  C21         0      46.039  16.329 195.080  1.00  0.00     0.040 A 
HETATM   17  C17         0      44.911  15.742 195.513  1.00  0.00     0.012 A 
ENDBRANCH   5   9
BRANCH   6  18
HETATM   18  C14         0      38.907  13.075 195.863  1.00  0.00    -0.026 A 
HETATM   19  C18         0      38.729  12.313 197.144  1.00  0.00     0.012 A 
HETATM   20  C22         0      37.531  11.821 197.503  1.00  0.00     0.040 A 
HETATM   21  C24         0      36.414  12.049 196.596  1.00  0.00     0.105 A 
HETATM   22  O6          0      35.139  11.646 196.773  1.00  0.00    -0.323 OA
HETATM   23  C20         0      36.549  12.685 195.494  1.00  0.00     0.105 A 
HETATM   24  C26         0      34.363  12.089 195.640  1.00  0.00     0.352 A 
HETATM   25  O4          0      35.367  12.761 194.842  1.00  0.00    -0.323 OA
HETATM   26  C16         0      37.836  13.263 195.061  1.00  0.00     0.049 A 
ENDBRANCH   6  18
TORSDOF 2
ENDMDL
