MODEL 1
REMARK VINA RESULT:     0.000      0.000      0.000
REMARK INTER + INTRA:          -1.538
REMARK INTER:                   0.000
REMARK INTRA:                  -1.538
REMARK UNBOUND:                -1.538
REMARK  8 active torsions:
REMARK  status: ('A' for Active; 'I' for Inactive)
REMARK    1  A    between atoms: C70_1  and  C1_2 
REMARK    2  A    between atoms: C70_1  and  N12_19 
REMARK    3  A    between atoms: C1_2  and  C2_3 
REMARK    4  A    between atoms: C2_3  and  C3_4 
REMARK       I    between atoms: C3_4  and  N1_6 
REMARK    5  A    between atoms: N1_6  and  C4_7 
REMARK    6  A    between atoms: C4_7  and  C13_8 
REMARK    7  A    between atoms: C4_7  and  C5_10 
REMARK    8  A    between atoms: C13_8  and  C7_9 
ROOT
HETATM    1  C70 BES A 501      38.207  20.817 197.010  1.00  6.08     0.230 C 
ENDROOT
BRANCH   1   2
HETATM    2  C1  BES A 501      39.073  20.617 195.916  1.00  6.71     0.036 C 
BRANCH   2   3
HETATM    3  C2  BES A 501      39.692  21.832 195.299  1.00  9.09     0.098 C 
BRANCH   3   4
HETATM    4  C3  BES A 501      39.083  22.056 193.944  1.00  8.29     0.198 C 
HETATM    5  O3  BES A 501      39.696  22.751 193.166  1.00  7.85    -0.280 OA
HETATM    6  N1  BES A 501      37.794  21.427 193.626  1.00  8.97    -0.248 NA
HETATM    7  H7  BES A 501      37.111  21.778 194.372  1.00  8.27     0.131 HD
BRANCH   6   8
HETATM    8  C4  BES A 501      37.091  21.573 192.351  1.00 10.85     0.169 C 
BRANCH   8   9
HETATM    9  C13 BES A 501      37.089  20.234 191.609  1.00  8.22     0.089 C 
BRANCH   9  10
HETATM   10  C7  BES A 501      37.392  19.077 192.580  1.00 11.21     0.029 A 
HETATM   11  C21 BES A 501      38.585  18.107 192.487  1.00  0.00     0.143 A 
HETATM   12  N22 BES A 501      38.486  17.118 193.664  1.00  0.00    -0.254 N 
HETATM   13  C23 BES A 501      37.232  17.477 194.484  1.00  0.00     0.207 A 
HETATM   14  N24 BES A 501      36.556  18.689 193.814  1.00  0.00    -0.353 N 
HETATM   15  H13 BES A 501      35.663  19.175 194.147  1.00  8.23     0.166 HD
ENDBRANCH   9  10
ENDBRANCH   8   9
BRANCH   8  16
HETATM   16  C5  BES A 501      35.678  21.948 192.658  1.00 10.09     0.192 C 
HETATM   17  O1  BES A 501      34.992  22.543 191.781  1.00  5.58    -0.647 OA
HETATM   18  O4  BES A 501      35.217  21.603 193.790  1.00  5.29    -0.647 OA
ENDBRANCH   8  16
ENDBRANCH   6   8
ENDBRANCH   3   4
ENDBRANCH   2   3
ENDBRANCH   1   2
BRANCH   1  19
HETATM   19  N12 BES A 501      36.780  20.972 196.505  1.00  8.22    -0.079 N 
HETATM   20  H14 BES A 501      36.221  20.091 196.740  1.00  8.22     0.274 HD
HETATM   21  H15 BES A 501      36.790  21.116 195.446  1.00  8.22     0.274 HD
HETATM   22  H6  BES A 501      36.325  21.818 196.976  1.00  8.22     0.274 HD
ENDBRANCH   1  19
TORSDOF 8
ENDMDL
MODEL 2
REMARK VINA RESULT:     0.000      9.710     11.579
REMARK INTER + INTRA:          -1.538
REMARK INTER:                   0.000
REMARK INTRA:                  -1.538
REMARK UNBOUND:                -1.538
REMARK  8 active torsions:
REMARK  status: ('A' for Active; 'I' for Inactive)
REMARK    1  A    between atoms: C70_1  and  C1_2 
REMARK    2  A    between atoms: C70_1  and  N12_19 
REMARK    3  A    between atoms: C1_2  and  C2_3 
REMARK    4  A    between atoms: C2_3  and  C3_4 
REMARK       I    between atoms: C3_4  and  N1_6 
REMARK    5  A    between atoms: N1_6  and  C4_7 
REMARK    6  A    between atoms: C4_7  and  C13_8 
REMARK    7  A    between atoms: C4_7  and  C5_10 
REMARK    8  A    between atoms: C13_8  and  C7_9 
ROOT
HETATM    1  C70 BES A 501      46.200  18.756 202.502  1.00  6.08     0.230 C 
ENDROOT
BRANCH   1   2
HETATM    2  C1  BES A 501      44.848  18.794 202.899  1.00  6.71     0.036 C 
BRANCH   2   3
HETATM    3  C2  BES A 501      44.500  18.169 204.213  1.00  9.09     0.098 C 
BRANCH   3   4
HETATM    4  C3  BES A 501      43.719  16.911 203.964  1.00  8.29     0.198 C 
HETATM    5  O3  BES A 501      43.055  16.476 204.878  1.00  7.85    -0.280 OA
HETATM    6  N1  BES A 501      43.788  16.275 202.640  1.00  8.97    -0.248 NA
HETATM    7  H7  BES A 501      44.826  16.074 202.472  1.00  8.27     0.131 HD
BRANCH   6   8
HETATM    8  C4  BES A 501      43.086  15.045 202.273  1.00 10.85     0.169 C 
BRANCH   8   9
HETATM    9  C13 BES A 501      41.996  15.363 201.245  1.00  8.22     0.089 C 
BRANCH   9  10
HETATM   10  C7  BES A 501      42.261  16.729 200.582  1.00 11.21     0.029 A 
HETATM   11  C21 BES A 501      41.325  17.951 200.624  1.00  0.00     0.143 A 
HETATM   12  N22 BES A 501      41.993  19.088 199.829  1.00  0.00    -0.254 N 
HETATM   13  C23 BES A 501      43.342  18.569 199.296  1.00  0.00     0.207 A 
HETATM   14  N24 BES A 501      43.507  17.110 199.762  1.00  0.00    -0.353 N 
HETATM   15  H13 BES A 501      44.341  16.473 199.552  1.00  8.23     0.166 HD
ENDBRANCH   9  10
ENDBRANCH   8   9
BRANCH   8  16
HETATM   16  C5  BES A 501      44.084  14.131 201.640  1.00 10.09     0.192 C 
HETATM   17  O1  BES A 501      43.864  12.888 201.628  1.00  5.58    -0.647 OA
HETATM   18  O4  BES A 501      45.099  14.665 201.095  1.00  5.29    -0.647 OA
ENDBRANCH   8  16
ENDBRANCH   6   8
ENDBRANCH   3   4
ENDBRANCH   2   3
ENDBRANCH   1   2
BRANCH   1  19
HETATM   19  N12 BES A 501      46.452  17.500 201.681  1.00  8.22    -0.079 N 
HETATM   20  H14 BES A 501      47.107  17.732 200.868  1.00  8.22     0.274 HD
HETATM   21  H15 BES A 501      45.525  17.132 201.298  1.00  8.22     0.274 HD
HETATM   22  H6  BES A 501      46.904  16.754 202.300  1.00  8.22     0.274 HD
ENDBRANCH   1  19
TORSDOF 8
ENDMDL
MODEL 3
REMARK VINA RESULT:     0.000      9.920     11.859
REMARK INTER + INTRA:          -1.538
REMARK INTER:                   0.000
REMARK INTRA:                  -1.538
REMARK UNBOUND:                -1.538
REMARK  8 active torsions:
REMARK  status: ('A' for Active; 'I' for Inactive)
REMARK    1  A    between atoms: C70_1  and  C1_2 
REMARK    2  A    between atoms: C70_1  and  N12_19 
REMARK    3  A    between atoms: C1_2  and  C2_3 
REMARK    4  A    between atoms: C2_3  and  C3_4 
REMARK       I    between atoms: C3_4  and  N1_6 
REMARK    5  A    between atoms: N1_6  and  C4_7 
REMARK    6  A    between atoms: C4_7  and  C13_8 
REMARK    7  A    between atoms: C4_7  and  C5_10 
REMARK    8  A    between atoms: C13_8  and  C7_9 
ROOT
HETATM    1  C70 BES A 501      41.548  13.177 198.406  1.00  6.08     0.230 C 
ENDROOT
BRANCH   1   2
HETATM    2  C1  BES A 501      42.261  12.513 199.425  1.00  6.71     0.036 C 
BRANCH   2   3
HETATM    3  C2  BES A 501      41.751  12.654 200.825  1.00  9.09     0.098 C 
BRANCH   3   4
HETATM    4  C3  BES A 501      42.704  13.511 201.608  1.00  8.29     0.198 C 
HETATM    5  O3  BES A 501      42.655  13.438 202.815  1.00  7.85    -0.280 OA
HETATM    6  N1  BES A 501      43.642  14.382 200.887  1.00  8.97    -0.248 NA
HETATM    7  H7  BES A 501      43.034  15.015 200.275  1.00  8.27     0.131 HD
BRANCH   6   8
HETATM    8  C4  BES A 501      44.612  15.270 201.529  1.00 10.85     0.169 C 
BRANCH   8   9
HETATM    9  C13 BES A 501      46.031  14.761 201.261  1.00  8.22     0.089 C 
BRANCH   9  10
HETATM   10  C7  BES A 501      46.041  13.791 200.064  1.00 11.21     0.029 A 
HETATM   11  C21 BES A 501      46.481  12.316 200.098  1.00  0.00     0.143 A 
HETATM   12  N22 BES A 501      46.323  11.740 198.679  1.00  0.00    -0.254 N 
HETATM   13  C23 BES A 501      45.787  12.859 197.767  1.00  0.00     0.207 A 
HETATM   14  N24 BES A 501      45.612  14.128 198.624  1.00  0.00    -0.353 N 
HETATM   15  H13 BES A 501      45.255  15.075 198.279  1.00  8.23     0.166 HD
ENDBRANCH   9  10
ENDBRANCH   8   9
BRANCH   8  16
HETATM   16  C5  BES A 501      44.465  16.619 200.906  1.00 10.09     0.192 C 
HETATM   17  O1  BES A 501      44.849  17.639 201.543  1.00  5.58    -0.647 OA
HETATM   18  O4  BES A 501      43.995  16.668 199.728  1.00  5.29    -0.647 OA
ENDBRANCH   8  16
ENDBRANCH   6   8
ENDBRANCH   3   4
ENDBRANCH   2   3
ENDBRANCH   1   2
BRANCH   1  19
HETATM   19  N12 BES A 501      42.128  14.568 198.205  1.00  8.22    -0.079 N 
HETATM   20  H14 BES A 501      41.346  15.244 197.930  1.00  8.22     0.274 HD
HETATM   21  H15 BES A 501      42.863  14.539 197.428  1.00  8.22     0.274 HD
HETATM   22  H6  BES A 501      42.583  14.900 199.114  1.00  8.22     0.274 HD
ENDBRANCH   1  19
TORSDOF 8
ENDMDL
MODEL 4
REMARK VINA RESULT:     0.001      7.901     10.115
REMARK INTER + INTRA:          -1.538
REMARK INTER:                   0.000
REMARK INTRA:                  -1.538
REMARK UNBOUND:                -1.538
REMARK  8 active torsions:
REMARK  status: ('A' for Active; 'I' for Inactive)
REMARK    1  A    between atoms: C70_1  and  C1_2 
REMARK    2  A    between atoms: C70_1  and  N12_19 
REMARK    3  A    between atoms: C1_2  and  C2_3 
REMARK    4  A    between atoms: C2_3  and  C3_4 
REMARK       I    between atoms: C3_4  and  N1_6 
REMARK    5  A    between atoms: N1_6  and  C4_7 
REMARK    6  A    between atoms: C4_7  and  C13_8 
REMARK    7  A    between atoms: C4_7  and  C5_10 
REMARK    8  A    between atoms: C13_8  and  C7_9 
ROOT
HETATM    1  C70 BES A 501      38.583  14.467 197.678  1.00  6.08     0.230 C 
ENDROOT
BRANCH   1   2
HETATM    2  C1  BES A 501      38.656  13.980 196.357  1.00  6.71     0.036 C 
BRANCH   2   3
HETATM    3  C2  BES A 501      37.404  14.021 195.539  1.00  9.09     0.098 C 
BRANCH   3   4
HETATM    4  C3  BES A 501      36.904  12.619 195.340  1.00  8.29     0.198 C 
HETATM    5  O3  BES A 501      36.133  12.426 194.427  1.00  7.85    -0.280 OA
HETATM    6  N1  BES A 501      37.369  11.558 196.245  1.00  8.97    -0.248 NA
HETATM    7  H7  BES A 501      37.101  11.882 197.230  1.00  8.27     0.131 HD
BRANCH   6   8
HETATM    8  C4  BES A 501      36.952  10.158 196.166  1.00 10.85     0.169 C 
BRANCH   8   9
HETATM    9  C13 BES A 501      38.139   9.292 195.735  1.00  8.22     0.089 C 
BRANCH   9  10
HETATM   10  C7  BES A 501      39.466  10.042 195.963  1.00 11.21     0.029 A 
HETATM   11  C21 BES A 501      40.492  10.413 194.876  1.00  0.00     0.143 A 
HETATM   12  N22 BES A 501      41.659  11.152 195.558  1.00  0.00    -0.254 N 
HETATM   13  C23 BES A 501      41.353  11.237 197.065  1.00  0.00     0.207 A 
HETATM   14  N24 BES A 501      39.997  10.550 197.315  1.00  0.00    -0.353 N 
HETATM   15  H13 BES A 501      39.510  10.446 198.262  1.00  8.23     0.166 HD
ENDBRANCH   9  10
ENDBRANCH   8   9
BRANCH   8  16
HETATM   16  C5  BES A 501      36.529   9.738 197.536  1.00 10.09     0.192 C 
HETATM   17  O1  BES A 501      35.740   8.761 197.667  1.00  5.58    -0.647 OA
HETATM   18  O4  BES A 501      37.030  10.367 198.518  1.00  5.29    -0.647 OA
ENDBRANCH   8  16
ENDBRANCH   6   8
ENDBRANCH   3   4
ENDBRANCH   2   3
ENDBRANCH   1   2
BRANCH   1  19
HETATM   19  N12 BES A 501      38.236  13.325 198.621  1.00  8.22    -0.079 N 
HETATM   20  H14 BES A 501      38.906  12.508 198.453  1.00  8.22     0.274 HD
HETATM   21  H15 BES A 501      37.232  13.006 198.440  1.00  8.22     0.274 HD
HETATM   22  H6  BES A 501      38.328  13.659 199.633  1.00  8.22     0.274 HD
ENDBRANCH   1  19
TORSDOF 8
ENDMDL
MODEL 5
REMARK VINA RESULT:     0.001      9.831     11.679
REMARK INTER + INTRA:          -1.537
REMARK INTER:                   0.000
REMARK INTRA:                  -1.537
REMARK UNBOUND:                -1.538
REMARK  8 active torsions:
REMARK  status: ('A' for Active; 'I' for Inactive)
REMARK    1  A    between atoms: C70_1  and  C1_2 
REMARK    2  A    between atoms: C70_1  and  N12_19 
REMARK    3  A    between atoms: C1_2  and  C2_3 
REMARK    4  A    between atoms: C2_3  and  C3_4 
REMARK       I    between atoms: C3_4  and  N1_6 
REMARK    5  A    between atoms: N1_6  and  C4_7 
REMARK    6  A    between atoms: C4_7  and  C13_8 
REMARK    7  A    between atoms: C4_7  and  C5_10 
REMARK    8  A    between atoms: C13_8  and  C7_9 
ROOT
HETATM    1  C70 BES A 501      35.561   7.791 195.917  1.00  6.08     0.230 C 
ENDROOT
BRANCH   1   2
HETATM    2  C1  BES A 501      34.305   7.909 195.288  1.00  6.71     0.036 C 
BRANCH   2   3
HETATM    3  C2  BES A 501      34.103   7.159 194.009  1.00  9.09     0.098 C 
BRANCH   3   4
HETATM    4  C3  BES A 501      34.039   8.140 192.873  1.00  8.29     0.198 C 
HETATM    5  O3  BES A 501      33.530   7.765 191.841  1.00  7.85    -0.280 OA
HETATM    6  N1  BES A 501      34.585   9.491 193.062  1.00  8.97    -0.248 NA
HETATM    7  H7  BES A 501      35.610   9.351 193.338  1.00  8.27     0.131 HD
BRANCH   6   8
HETATM    8  C4  BES A 501      34.595  10.533 192.036  1.00 10.85     0.169 C 
BRANCH   8   9
HETATM    9  C13 BES A 501      33.641  11.662 192.440  1.00  8.22     0.089 C 
BRANCH   9  10
HETATM   10  C7  BES A 501      33.334  11.595 193.948  1.00 11.21     0.029 A 
HETATM   11  C21 BES A 501      31.943  11.403 194.580  1.00  0.00     0.143 A 
HETATM   12  N22 BES A 501      32.113  11.397 196.111  1.00  0.00    -0.254 N 
HETATM   13  C23 BES A 501      33.609  11.587 196.425  1.00  0.00     0.207 A 
HETATM   14  N24 BES A 501      34.364  11.708 195.087  1.00  0.00    -0.353 N 
HETATM   15  H13 BES A 501      35.418  11.847 194.971  1.00  8.23     0.166 HD
ENDBRANCH   9  10
ENDBRANCH   8   9
BRANCH   8  16
HETATM   16  C5  BES A 501      35.982  11.085 191.969  1.00 10.09     0.192 C 
HETATM   17  O1  BES A 501      36.368  11.662 190.915  1.00  5.58    -0.647 OA
HETATM   18  O4  BES A 501      36.699  10.983 193.011  1.00  5.29    -0.647 OA
ENDBRANCH   8  16
ENDBRANCH   6   8
ENDBRANCH   3   4
ENDBRANCH   2   3
ENDBRANCH   1   2
BRANCH   1  19
HETATM   19  N12 BES A 501      36.481   8.896 195.422  1.00  8.22    -0.079 N 
HETATM   20  H14 BES A 501      37.366   8.918 196.023  1.00  8.22     0.274 HD
HETATM   21  H15 BES A 501      35.979   9.837 195.492  1.00  8.22     0.274 HD
HETATM   22  H6  BES A 501      36.748   8.709 194.403  1.00  8.22     0.274 HD
ENDBRANCH   1  19
TORSDOF 8
ENDMDL
MODEL 6
REMARK VINA RESULT:     0.001      9.474     11.122
REMARK INTER + INTRA:          -1.537
REMARK INTER:                   0.000
REMARK INTRA:                  -1.537
REMARK UNBOUND:                -1.538
REMARK  8 active torsions:
REMARK  status: ('A' for Active; 'I' for Inactive)
REMARK    1  A    between atoms: C70_1  and  C1_2 
REMARK    2  A    between atoms: C70_1  and  N12_19 
REMARK    3  A    between atoms: C1_2  and  C2_3 
REMARK    4  A    between atoms: C2_3  and  C3_4 
REMARK       I    between atoms: C3_4  and  N1_6 
REMARK    5  A    between atoms: N1_6  and  C4_7 
REMARK    6  A    between atoms: C4_7  and  C13_8 
REMARK    7  A    between atoms: C4_7  and  C5_10 
REMARK    8  A    between atoms: C13_8  and  C7_9 
ROOT
HETATM    1  C70 BES A 501      35.655  14.771 203.037  1.00  6.08     0.230 C 
ENDROOT
BRANCH   1   2
HETATM    2  C1  BES A 501      36.881  15.432 203.250  1.00  6.71     0.036 C 
BRANCH   2   3
HETATM    3  C2  BES A 501      37.260  16.509 202.283  1.00  9.09     0.098 C 
BRANCH   3   4
HETATM    4  C3  BES A 501      38.406  16.028 201.440  1.00  8.29     0.198 C 
HETATM    5  O3  BES A 501      39.068  16.866 200.869  1.00  7.85    -0.280 OA
HETATM    6  N1  BES A 501      38.673  14.585 201.350  1.00  8.97    -0.248 NA
HETATM    7  H7  BES A 501      37.768  14.148 200.981  1.00  8.27     0.131 HD
BRANCH   6   8
HETATM    8  C4  BES A 501      39.748  13.988 200.558  1.00 10.85     0.169 C 
BRANCH   8   9
HETATM    9  C13 BES A 501      40.794  13.374 201.493  1.00  8.22     0.089 C 
BRANCH   9  10
HETATM   10  C7  BES A 501      40.203  13.158 202.899  1.00 11.21     0.029 A 
HETATM   11  C21 BES A 501      40.716  13.795 204.204  1.00  0.00     0.143 A 
HETATM   12  N22 BES A 501      39.824  13.299 205.357  1.00  0.00    -0.254 N 
HETATM   13  C23 BES A 501      38.761  12.355 204.766  1.00  0.00     0.207 A 
HETATM   14  N24 BES A 501      38.995  12.268 203.245  1.00  0.00    -0.353 N 
HETATM   15  H13 BES A 501      38.420  11.691 202.553  1.00  8.23     0.166 HD
ENDBRANCH   9  10
ENDBRANCH   8   9
BRANCH   8  16
HETATM   16  C5  BES A 501      39.146  12.897 199.735  1.00 10.09     0.192 C 
HETATM   17  O1  BES A 501      39.730  12.525 198.679  1.00  5.58    -0.647 OA
HETATM   18  O4  BES A 501      38.083  12.358 200.172  1.00  5.29    -0.647 OA
ENDBRANCH   8  16
ENDBRANCH   6   8
ENDBRANCH   3   4
ENDBRANCH   2   3
ENDBRANCH   1   2
BRANCH   1  19
HETATM   19  N12 BES A 501      35.883  13.549 202.161  1.00  8.22    -0.079 N 
HETATM   20  H14 BES A 501      35.639  13.787 201.147  1.00  8.22     0.274 HD
HETATM   21  H15 BES A 501      35.261  12.747 202.498  1.00  8.22     0.274 HD
HETATM   22  H6  BES A 501      36.909  13.254 202.221  1.00  8.22     0.274 HD
ENDBRANCH   1  19
TORSDOF 8
ENDMDL
MODEL 7
REMARK VINA RESULT:     0.001      6.947      8.926
REMARK INTER + INTRA:          -1.537
REMARK INTER:                   0.000
REMARK INTRA:                  -1.537
REMARK UNBOUND:                -1.538
REMARK  8 active torsions:
REMARK  status: ('A' for Active; 'I' for Inactive)
REMARK    1  A    between atoms: C70_1  and  C1_2 
REMARK    2  A    between atoms: C70_1  and  N12_19 
REMARK    3  A    between atoms: C1_2  and  C2_3 
REMARK    4  A    between atoms: C2_3  and  C3_4 
REMARK       I    between atoms: C3_4  and  N1_6 
REMARK    5  A    between atoms: N1_6  and  C4_7 
REMARK    6  A    between atoms: C4_7  and  C13_8 
REMARK    7  A    between atoms: C4_7  and  C5_10 
REMARK    8  A    between atoms: C13_8  and  C7_9 
ROOT
HETATM    1  C70 BES A 501      41.408  13.864 198.871  1.00  6.08     0.230 C 
ENDROOT
BRANCH   1   2
HETATM    2  C1  BES A 501      40.986  15.012 198.171  1.00  6.71     0.036 C 
BRANCH   2   3
HETATM    3  C2  BES A 501      40.205  14.800 196.911  1.00  9.09     0.098 C 
BRANCH   3   4
HETATM    4  C3  BES A 501      41.057  15.189 195.737  1.00  8.29     0.198 C 
HETATM    5  O3  BES A 501      40.493  15.427 194.694  1.00  7.85    -0.280 OA
HETATM    6  N1  BES A 501      42.516  15.266 195.905  1.00  8.97    -0.248 NA
HETATM    7  H7  BES A 501      42.818  14.297 196.243  1.00  8.27     0.131 HD
BRANCH   6   8
HETATM    8  C4  BES A 501      43.456  15.621 194.842  1.00 10.85     0.169 C 
BRANCH   8   9
HETATM    9  C13 BES A 501      44.089  16.982 195.150  1.00  8.22     0.089 C 
BRANCH   9  10
HETATM   10  C7  BES A 501      43.918  17.333 196.640  1.00 11.21     0.029 A 
HETATM   11  C21 BES A 501      43.172  18.558 197.201  1.00  0.00     0.143 A 
HETATM   12  N22 BES A 501      43.255  18.503 198.737  1.00  0.00    -0.254 N 
HETATM   13  C23 BES A 501      44.052  17.244 199.127  1.00  0.00     0.207 A 
HETATM   14  N24 BES A 501      44.462  16.520 197.829  1.00  0.00    -0.353 N 
HETATM   15  H13 BES A 501      45.026  15.613 197.767  1.00  8.23     0.166 HD
ENDBRANCH   9  10
ENDBRANCH   8   9
BRANCH   8  16
HETATM   16  C5  BES A 501      44.533  14.587 194.832  1.00 10.09     0.192 C 
HETATM   17  O1  BES A 501      45.206  14.405 193.779  1.00  5.58    -0.647 OA
HETATM   18  O4  BES A 501      44.751  13.963 195.916  1.00  5.29    -0.647 OA
ENDBRANCH   8  16
ENDBRANCH   6   8
ENDBRANCH   3   4
ENDBRANCH   2   3
ENDBRANCH   1   2
BRANCH   1  19
HETATM   19  N12 BES A 501      42.791  13.454 198.388  1.00  8.22    -0.079 N 
HETATM   20  H14 BES A 501      42.774  12.428 198.087  1.00  8.22     0.274 HD
HETATM   21  H15 BES A 501      43.498  13.582 199.180  1.00  8.22     0.274 HD
HETATM   22  H6  BES A 501      43.073  14.065 197.556  1.00  8.22     0.274 HD
ENDBRANCH   1  19
TORSDOF 8
ENDMDL
MODEL 8
REMARK VINA RESULT:     0.001      8.436     10.235
REMARK INTER + INTRA:          -1.537
REMARK INTER:                   0.000
REMARK INTRA:                  -1.537
REMARK UNBOUND:                -1.538
REMARK  8 active torsions:
REMARK  status: ('A' for Active; 'I' for Inactive)
REMARK    1  A    between atoms: C70_1  and  C1_2 
REMARK    2  A    between atoms: C70_1  and  N12_19 
REMARK    3  A    between atoms: C1_2  and  C2_3 
REMARK    4  A    between atoms: C2_3  and  C3_4 
REMARK       I    between atoms: C3_4  and  N1_6 
REMARK    5  A    between atoms: N1_6  and  C4_7 
REMARK    6  A    between atoms: C4_7  and  C13_8 
REMARK    7  A    between atoms: C4_7  and  C5_10 
REMARK    8  A    between atoms: C13_8  and  C7_9 
ROOT
HETATM    1  C70 BES A 501      46.343  13.308 192.013  1.00  6.08     0.230 C 
ENDROOT
BRANCH   1   2
HETATM    2  C1  BES A 501      45.579  12.158 192.295  1.00  6.71     0.036 C 
BRANCH   2   3
HETATM    3  C2  BES A 501      45.346  11.195 191.174  1.00  9.09     0.098 C 
BRANCH   3   4
HETATM    4  C3  BES A 501      43.904  11.263 190.763  1.00  8.29     0.198 C 
HETATM    5  O3  BES A 501      43.457  10.325 190.140  1.00  7.85    -0.280 OA
HETATM    6  N1  BES A 501      43.108  12.442 191.132  1.00  8.97    -0.248 NA
HETATM    7  H7  BES A 501      43.625  13.280 190.712  1.00  8.27     0.131 HD
BRANCH   6   8
HETATM    8  C4  BES A 501      41.700  12.636 190.784  1.00 10.85     0.169 C 
BRANCH   8   9
HETATM    9  C13 BES A 501      40.845  12.579 192.054  1.00  8.22     0.089 C 
BRANCH   9  10
HETATM   10  C7  BES A 501      41.719  12.799 193.304  1.00 11.21     0.029 A 
HETATM   11  C21 BES A 501      41.908  11.803 194.463  1.00  0.00     0.143 A 
HETATM   12  N22 BES A 501      42.862  12.442 195.488  1.00  0.00    -0.254 N 
HETATM   13  C23 BES A 501      43.262  13.834 194.964  1.00  0.00     0.207 A 
HETATM   14  N24 BES A 501      42.555  14.055 193.613  1.00  0.00    -0.353 N 
HETATM   15  H13 BES A 501      42.632  14.927 192.998  1.00  8.23     0.166 HD
ENDBRANCH   9  10
ENDBRANCH   8   9
BRANCH   8  16
HETATM   16  C5  BES A 501      41.570  13.997 190.184  1.00 10.09     0.192 C 
HETATM   17  O1  BES A 501      40.593  14.247 189.424  1.00  5.58    -0.647 OA
HETATM   18  O4  BES A 501      42.438  14.864 190.512  1.00  5.29    -0.647 OA
ENDBRANCH   8  16
ENDBRANCH   6   8
ENDBRANCH   3   4
ENDBRANCH   2   3
ENDBRANCH   1   2
BRANCH   1  19
HETATM   19  N12 BES A 501      45.421  14.436 191.576  1.00  8.22    -0.079 N 
HETATM   20  H14 BES A 501      45.570  15.284 192.210  1.00  8.22     0.274 HD
HETATM   21  H15 BES A 501      44.404  14.113 191.645  1.00  8.22     0.274 HD
HETATM   22  H6  BES A 501      45.641  14.705 190.564  1.00  8.22     0.274 HD
ENDBRANCH   1  19
TORSDOF 8
ENDMDL
MODEL 9
REMARK VINA RESULT:     0.001      8.513     10.532
REMARK INTER + INTRA:          -1.537
REMARK INTER:                   0.000
REMARK INTRA:                  -1.537
REMARK UNBOUND:                -1.538
REMARK  8 active torsions:
REMARK  status: ('A' for Active; 'I' for Inactive)
REMARK    1  A    between atoms: C70_1  and  C1_2 
REMARK    2  A    between atoms: C70_1  and  N12_19 
REMARK    3  A    between atoms: C1_2  and  C2_3 
REMARK    4  A    between atoms: C2_3  and  C3_4 
REMARK       I    between atoms: C3_4  and  N1_6 
REMARK    5  A    between atoms: N1_6  and  C4_7 
REMARK    6  A    between atoms: C4_7  and  C13_8 
REMARK    7  A    between atoms: C4_7  and  C5_10 
REMARK    8  A    between atoms: C13_8  and  C7_9 
ROOT
HETATM    1  C70 BES A 501      39.762  14.908 198.129  1.00  6.08     0.230 C 
ENDROOT
BRANCH   1   2
HETATM    2  C1  BES A 501      39.974  13.754 198.910  1.00  6.71     0.036 C 
BRANCH   2   3
HETATM    3  C2  BES A 501      41.096  13.791 199.900  1.00  9.09     0.098 C 
BRANCH   3   4
HETATM    4  C3  BES A 501      42.195  12.884 199.426  1.00  8.29     0.198 C 
HETATM    5  O3  BES A 501      43.002  12.510 200.248  1.00  7.85    -0.280 OA
HETATM    6  N1  BES A 501      42.239  12.492 198.010  1.00  8.97    -0.248 NA
HETATM    7  H7  BES A 501      42.289  13.408 197.459  1.00  8.27     0.131 HD
BRANCH   6   8
HETATM    8  C4  BES A 501      43.260  11.625 197.421  1.00 10.85     0.169 C 
BRANCH   8   9
HETATM    9  C13 BES A 501      42.626  10.293 197.007  1.00  8.22     0.089 C 
BRANCH   9  10
HETATM   10  C7  BES A 501      41.096  10.433 196.901  1.00 11.21     0.029 A 
HETATM   11  C21 BES A 501      40.056   9.646 197.721  1.00  0.00     0.143 A 
HETATM   12  N22 BES A 501      38.655  10.111 197.283  1.00  0.00    -0.254 N 
HETATM   13  C23 BES A 501      38.828  11.185 196.193  1.00  0.00     0.207 A 
HETATM   14  N24 BES A 501      40.337  11.384 195.956  1.00  0.00    -0.353 N 
HETATM   15  H13 BES A 501      40.780  12.064 195.259  1.00  8.23     0.166 HD
ENDBRANCH   9  10
ENDBRANCH   8   9
BRANCH   8  16
HETATM   16  C5  BES A 501      43.775  12.307 196.197  1.00 10.09     0.192 C 
HETATM   17  O1  BES A 501      44.920  12.008 195.757  1.00  5.58    -0.647 OA
HETATM   18  O4  BES A 501      43.003  13.136 195.623  1.00  5.29    -0.647 OA
ENDBRANCH   8  16
ENDBRANCH   6   8
ENDBRANCH   3   4
ENDBRANCH   2   3
ENDBRANCH   1   2
BRANCH   1  19
HETATM   19  N12 BES A 501      40.562  14.802 196.840  1.00  8.22    -0.079 N 
HETATM   20  H14 BES A 501      41.306  15.570 196.818  1.00  8.22     0.274 HD
HETATM   21  H15 BES A 501      39.907  14.915 196.002  1.00  8.22     0.274 HD
HETATM   22  H6  BES A 501      41.038  13.844 196.793  1.00  8.22     0.274 HD
ENDBRANCH   1  19
TORSDOF 8
ENDMDL
