MODEL 1
REMARK VINA RESULT:    -1.767      0.000      0.000
REMARK INTER + INTRA:          -7.270
REMARK INTER:                  -3.523
REMARK INTRA:                  -3.747
REMARK UNBOUND:                -3.747
REMARK  10 active torsions:
REMARK  status: ('A' for Active; 'I' for Inactive)
REMARK    1  A    between atoms: N2_1  and  C1_2 
REMARK    2  A    between atoms: C1_2  and  C6_3 
REMARK    3  A    between atoms: C1_2  and  C2_10 
REMARK    4  A    between atoms: C6_3  and  C7_4 
REMARK    5  A    between atoms: C2_10  and  O2_11 
REMARK    6  A    between atoms: C2_10  and  C3_12 
REMARK       I    between atoms: C3_12  and  N1_14 
REMARK    7  A    between atoms: N1_14  and  C4_15 
REMARK    8  A    between atoms: C4_15  and  C13_16 
REMARK    9  A    between atoms: C4_15  and  C5_20 
REMARK   10  A    between atoms: C13_16  and  C14_17 
ROOT
HETATM    1  N2  BES   501      43.385  14.641 199.676  1.00  0.00    -0.423 N 
HETATM    2  H1  BES   501      42.329  14.805 199.731  1.00  0.00     0.150 HD
HETATM    3  H2  BES   501      44.025  15.011 200.450  1.00  0.00     0.150 HD
ENDROOT
BRANCH   1   4
HETATM    4  C1  BES   501      43.944  13.926 198.562  1.00  0.00     0.116 C 
BRANCH   4   5
HETATM    5  C6  BES   501      43.952  12.397 198.650  1.00  0.00     0.066 C 
BRANCH   5   6
HETATM    6  C7  BES   501      43.014  11.712 197.642  1.00  0.00    -0.056 A 
HETATM    7  C8  BES   501      43.165  10.349 197.302  1.00  0.00     0.007 A 
HETATM    8  C9  BES   501      42.285   9.746 196.377  1.00  0.00     0.001 A 
HETATM    9  C10 BES   501      41.256  10.489 195.806  1.00  0.00     0.000 A 
HETATM   10  C11 BES   501      41.101  11.844 196.151  1.00  0.00     0.001 A 
HETATM   11  C12 BES   501      41.981  12.449 197.075  1.00  0.00     0.007 A 
ENDBRANCH   5   6
ENDBRANCH   4   5
BRANCH   4  12
HETATM   12  C2  BES   501      45.376  14.355 198.467  1.00  0.00     0.232 C 
BRANCH  12  13
HETATM   13  O2  BES   501      45.556  15.445 199.275  1.00  0.00    -0.384 OA
HETATM   14  H12 BES   501      46.213  16.120 198.812  1.00  0.00     0.210 HD
ENDBRANCH  12  13
BRANCH  12  15
HETATM   15  C3  BES   501      45.686  14.716 197.043  1.00  0.00     0.249 C 
HETATM   16  O3  BES   501      46.841  14.950 196.766  1.00  0.00    -0.271 OA
HETATM   17  N1  BES   501      44.592  14.769 196.064  1.00  0.00    -0.344 N 
HETATM   18  H23 BES   501      43.605  14.533 196.406  1.00  0.00     0.163 HD
BRANCH  17  19
HETATM   19  C4  BES   501      44.757  15.117 194.653  1.00  0.00     0.185 C 
BRANCH  19  20
HETATM   20  C13 BES   501      45.214  13.883 193.868  1.00  0.00     0.040 C 
BRANCH  20  21
HETATM   21  C14 BES   501      44.595  12.626 194.445  1.00  0.00    -0.020 C 
HETATM   22  C15 BES   501      43.671  11.996 193.402  1.00  0.00     0.009 C 
HETATM   23  C16 BES   501      45.648  11.647 194.859  1.00  0.00     0.009 C 
ENDBRANCH  20  21
ENDBRANCH  19  20
BRANCH  19  24
HETATM   24  C5  BES   501      43.421  15.540 194.137  1.00  0.00     0.196 C 
HETATM   25  O1  BES   501      43.350  16.170 193.046  1.00  0.00    -0.646 OA
HETATM   26  O4  BES   501      42.400  15.195 194.811  1.00  0.00    -0.646 OA
ENDBRANCH  19  24
ENDBRANCH  17  19
ENDBRANCH  12  15
ENDBRANCH   4  12
ENDBRANCH   1   4
TORSDOF 10
REMARK  9 active torsions:
REMARK  status: ('A' for Active; 'I' for Inactive)
REMARK    1  A    between atoms: C70_1  and  C1_2 
REMARK    2  A    between atoms: C70_1  and  N12_20 
REMARK    3  A    between atoms: C1_2  and  C2_3 
REMARK    4  A    between atoms: C2_3  and  C3_4 
REMARK    5  A    between atoms: C2_3  and  O5_17 
REMARK       I    between atoms: C3_4  and  N1_6 
REMARK    6  A    between atoms: N1_6  and  C4_7 
REMARK    7  A    between atoms: C4_7  and  C13_8 
REMARK    8  A    between atoms: C4_7  and  C5_10 
REMARK    9  A    between atoms: C13_8  and  C7_9 
ROOT
HETATM    1  C70 BES A 501      38.497  15.707 194.586  1.00  6.08     0.232 C 
ENDROOT
BRANCH   1   2
HETATM    2  C1  BES A 501      38.639  17.090 194.358  1.00  6.71     0.068 C 
BRANCH   2   3
HETATM    3  C2  BES A 501      39.762  17.529 193.470  1.00  9.09     0.205 C 
BRANCH   3   4
HETATM    4  C3  BES A 501      40.800  18.224 194.303  1.00  8.29     0.227 C 
HETATM    5  O3  BES A 501      41.448  19.097 193.771  1.00  7.85    -0.277 OA
HETATM    6  N1  BES A 501      40.978  17.824 195.706  1.00  8.97    -0.246 NA
HETATM    7  H7  BES A 501      41.203  16.778 195.681  1.00  8.27     0.131 HD
BRANCH   6   8
HETATM    8  C4  BES A 501      41.959  18.413 196.619  1.00 10.85     0.169 C 
BRANCH   8   9
HETATM    9  C13 BES A 501      41.282  19.487 197.476  1.00  8.22     0.089 C 
BRANCH   9  10
HETATM   10  C7  BES A 501      39.753  19.304 197.464  1.00 11.21     0.029 A 
HETATM   11  C21 BES A 501      38.722  20.334 196.964  1.00  0.00     0.143 A 
HETATM   12  N22 BES A 501      37.319  19.726 197.141  1.00  0.00    -0.254 N 
HETATM   13  C23 BES A 501      37.481  18.321 197.749  1.00  0.00     0.207 A 
HETATM   14  N24 BES A 501      38.987  18.060 197.949  1.00  0.00    -0.353 N 
HETATM   15  H13 BES A 501      39.422  17.171 198.353  1.00  8.23     0.166 HD
ENDBRANCH   9  10
ENDBRANCH   8   9
BRANCH   8  16
HETATM   16  C5  BES A 501      42.444  17.324 197.519  1.00 10.09     0.192 C 
HETATM   17  O1  BES A 501      41.654  16.398 197.852  1.00  5.58    -0.647 OA
HETATM   18  O4  BES A 501      43.663  17.361 197.872  1.00  5.29    -0.647 OA
ENDBRANCH   8  16
ENDBRANCH   6   8
ENDBRANCH   3   4
BRANCH   3  19
HETATM   19  O5  BES A 501      40.372  16.333 192.803  1.00  8.27    -0.387 OA
HETATM   20  H15 BES A 501      39.619  15.770 192.336  1.00  8.22     0.210 HD
ENDBRANCH   3  19
ENDBRANCH   2   3
ENDBRANCH   1   2
BRANCH   1  21
HETATM   21  N12 BES A 501      39.478  15.266 195.662  1.00  8.22    -0.079 N 
HETATM   22  H14 BES A 501      40.461  15.208 195.245  1.00  8.22     0.274 HD
HETATM   23  H15 BES A 501      39.191  14.306 196.034  1.00  8.22     0.274 HD
HETATM   24  H1  BES A 501      39.471  15.976 196.463  1.00  8.22     0.274 HD
ENDBRANCH   1  21
TORSDOF 9
ENDMDL
MODEL 2
REMARK VINA RESULT:    -1.766      4.435      8.176
REMARK INTER + INTRA:          -7.269
REMARK INTER:                  -4.059
REMARK INTRA:                  -3.210
REMARK UNBOUND:                -3.747
REMARK  10 active torsions:
REMARK  status: ('A' for Active; 'I' for Inactive)
REMARK    1  A    between atoms: N2_1  and  C1_2 
REMARK    2  A    between atoms: C1_2  and  C6_3 
REMARK    3  A    between atoms: C1_2  and  C2_10 
REMARK    4  A    between atoms: C6_3  and  C7_4 
REMARK    5  A    between atoms: C2_10  and  O2_11 
REMARK    6  A    between atoms: C2_10  and  C3_12 
REMARK       I    between atoms: C3_12  and  N1_14 
REMARK    7  A    between atoms: N1_14  and  C4_15 
REMARK    8  A    between atoms: C4_15  and  C13_16 
REMARK    9  A    between atoms: C4_15  and  C5_20 
REMARK   10  A    between atoms: C13_16  and  C14_17 
ROOT
HETATM    1  N2  BES   501      36.519  22.340 197.406  1.00  0.00    -0.423 N 
HETATM    2  H1  BES   501      37.018  22.392 196.461  1.00  0.00     0.150 HD
HETATM    3  H2  BES   501      36.207  23.238 197.896  1.00  0.00     0.150 HD
ENDROOT
BRANCH   1   4
HETATM    4  C1  BES   501      36.268  21.064 198.017  1.00  0.00     0.116 C 
BRANCH   4   5
HETATM    5  C6  BES   501      34.884  20.847 198.634  1.00  0.00     0.066 C 
BRANCH   5   6
HETATM    6  C7  BES   501      33.995  19.874 197.842  1.00  0.00    -0.056 A 
HETATM    7  C8  BES   501      33.314  18.812 198.479  1.00  0.00     0.007 A 
HETATM    8  C9  BES   501      32.501  17.937 197.725  1.00  0.00     0.001 A 
HETATM    9  C10 BES   501      32.356  18.125 196.353  1.00  0.00     0.000 A 
HETATM   10  C11 BES   501      33.029  19.187 195.721  1.00  0.00     0.001 A 
HETATM   11  C12 BES   501      33.842  20.063 196.473  1.00  0.00     0.007 A 
ENDBRANCH   5   6
ENDBRANCH   4   5
BRANCH   4  12
HETATM   12  C2  BES   501      37.258  20.933 199.133  1.00  0.00     0.232 C 
BRANCH  12  13
HETATM   13  O2  BES   501      38.126  21.990 199.068  1.00  0.00    -0.384 OA
HETATM   14  H12 BES   501      38.803  21.840 198.281  1.00  0.00     0.210 HD
ENDBRANCH  12  13
BRANCH  12  15
HETATM   15  C3  BES   501      38.010  19.644 198.974  1.00  0.00     0.249 C 
HETATM   16  O3  BES   501      38.526  19.174 199.963  1.00  0.00    -0.271 OA
HETATM   17  N1  BES   501      38.084  19.017 197.648  1.00  0.00    -0.344 N 
HETATM   18  H23 BES   501      37.583  19.506 196.837  1.00  0.00     0.163 HD
BRANCH  17  19
HETATM   19  C4  BES   501      38.791  17.771 197.356  1.00  0.00     0.185 C 
BRANCH  19  20
HETATM   20  C13 BES   501      38.050  17.003 196.256  1.00  0.00     0.040 C 
BRANCH  20  21
HETATM   21  C14 BES   501      36.600  17.437 196.190  1.00  0.00    -0.020 C 
HETATM   22  C15 BES   501      36.216  17.687 194.730  1.00  0.00     0.009 C 
HETATM   23  C16 BES   501      35.699  16.404 196.789  1.00  0.00     0.009 C 
ENDBRANCH  20  21
ENDBRANCH  19  20
BRANCH  19  24
HETATM   24  C5  BES   501      40.149  18.133 196.850  1.00  0.00     0.196 C 
HETATM   25  O1  BES   501      41.044  18.476 197.670  1.00  0.00    -0.646 OA
HETATM   26  O4  BES   501      40.351  18.029 195.599  1.00  0.00    -0.646 OA
ENDBRANCH  19  24
ENDBRANCH  17  19
ENDBRANCH  12  15
ENDBRANCH   4  12
ENDBRANCH   1   4
TORSDOF 10
REMARK  9 active torsions:
REMARK  status: ('A' for Active; 'I' for Inactive)
REMARK    1  A    between atoms: C70_1  and  C1_2 
REMARK    2  A    between atoms: C70_1  and  N12_20 
REMARK    3  A    between atoms: C1_2  and  C2_3 
REMARK    4  A    between atoms: C2_3  and  C3_4 
REMARK    5  A    between atoms: C2_3  and  O5_17 
REMARK       I    between atoms: C3_4  and  N1_6 
REMARK    6  A    between atoms: N1_6  and  C4_7 
REMARK    7  A    between atoms: C4_7  and  C13_8 
REMARK    8  A    between atoms: C4_7  and  C5_10 
REMARK    9  A    between atoms: C13_8  and  C7_9 
ROOT
HETATM    1  C70 BES A 501      43.591  17.431 193.693  1.00  6.08     0.232 C 
ENDROOT
BRANCH   1   2
HETATM    2  C1  BES A 501      43.197  18.779 193.576  1.00  6.71     0.068 C 
BRANCH   2   3
HETATM    3  C2  BES A 501      43.473  19.679 194.739  1.00  9.09     0.205 C 
BRANCH   3   4
HETATM    4  C3  BES A 501      42.479  20.805 194.732  1.00  8.29     0.227 C 
HETATM    5  O3  BES A 501      42.852  21.880 195.144  1.00  7.85    -0.277 OA
HETATM    6  N1  BES A 501      41.120  20.557 194.228  1.00  8.97    -0.246 NA
HETATM    7  H7  BES A 501      40.732  19.760 194.828  1.00  8.27     0.131 HD
BRANCH   6   8
HETATM    8  C4  BES A 501      40.058  21.562 194.178  1.00 10.85     0.169 C 
BRANCH   8   9
HETATM    9  C13 BES A 501      39.268  21.409 192.874  1.00  8.22     0.089 C 
BRANCH   9  10
HETATM   10  C7  BES A 501      39.554  20.041 192.227  1.00 11.21     0.029 A 
HETATM   11  C21 BES A 501      40.169  19.810 190.834  1.00  0.00     0.143 A 
HETATM   12  N22 BES A 501      40.271  18.291 190.605  1.00  0.00    -0.254 N 
HETATM   13  C23 BES A 501      39.717  17.582 191.856  1.00  0.00     0.207 A 
HETATM   14  N24 BES A 501      39.274  18.665 192.859  1.00  0.00    -0.353 N 
HETATM   15  H13 BES A 501      38.848  18.490 193.824  1.00  8.23     0.166 HD
ENDBRANCH   9  10
ENDBRANCH   8   9
BRANCH   8  16
HETATM   16  C5  BES A 501      39.138  21.301 195.325  1.00 10.09     0.192 C 
HETATM   17  O1  BES A 501      38.058  20.679 195.122  1.00  5.58    -0.647 OA
HETATM   18  O4  BES A 501      39.517  21.684 196.474  1.00  5.29    -0.647 OA
ENDBRANCH   8  16
ENDBRANCH   6   8
ENDBRANCH   3   4
BRANCH   3  19
HETATM   19  O5  BES A 501      43.345  18.905 196.017  1.00  8.27    -0.387 OA
HETATM   20  H15 BES A 501      42.858  17.994 195.827  1.00  8.22     0.210 HD
ENDBRANCH   3  19
ENDBRANCH   2   3
ENDBRANCH   1   2
BRANCH   1  21
HETATM   21  N12 BES A 501      42.423  16.604 194.209  1.00  8.22    -0.079 N 
HETATM   22  H14 BES A 501      41.659  16.561 193.462  1.00  8.22     0.274 HD
HETATM   23  H15 BES A 501      42.031  17.055 195.095  1.00  8.22     0.274 HD
HETATM   24  H1  BES A 501      42.759  15.613 194.432  1.00  8.22     0.274 HD
ENDBRANCH   1  21
TORSDOF 9
ENDMDL
MODEL 3
REMARK VINA RESULT:    -1.762      3.344      6.661
REMARK INTER + INTRA:          -7.261
REMARK INTER:                  -3.872
REMARK INTRA:                  -3.389
REMARK UNBOUND:                -3.747
REMARK  10 active torsions:
REMARK  status: ('A' for Active; 'I' for Inactive)
REMARK    1  A    between atoms: N2_1  and  C1_2 
REMARK    2  A    between atoms: C1_2  and  C6_3 
REMARK    3  A    between atoms: C1_2  and  C2_10 
REMARK    4  A    between atoms: C6_3  and  C7_4 
REMARK    5  A    between atoms: C2_10  and  O2_11 
REMARK    6  A    between atoms: C2_10  and  C3_12 
REMARK       I    between atoms: C3_12  and  N1_14 
REMARK    7  A    between atoms: N1_14  and  C4_15 
REMARK    8  A    between atoms: C4_15  and  C13_16 
REMARK    9  A    between atoms: C4_15  and  C5_20 
REMARK   10  A    between atoms: C13_16  and  C14_17 
ROOT
HETATM    1  N2  BES   501      45.871  18.208 191.982  1.00  0.00    -0.423 N 
HETATM    2  H1  BES   501      46.615  17.505 191.672  1.00  0.00     0.150 HD
HETATM    3  H2  BES   501      45.175  18.601 191.269  1.00  0.00     0.150 HD
ENDROOT
BRANCH   1   4
HETATM    4  C1  BES   501      45.806  18.627 193.355  1.00  0.00     0.116 C 
BRANCH   4   5
HETATM    5  C6  BES   501      46.356  20.018 193.686  1.00  0.00     0.066 C 
BRANCH   5   6
HETATM    6  C7  BES   501      45.309  20.977 194.276  1.00  0.00    -0.056 A 
HETATM    7  C8  BES   501      45.689  22.151 194.963  1.00  0.00     0.007 A 
HETATM    8  C9  BES   501      44.703  23.015 195.489  1.00  0.00     0.001 A 
HETATM    9  C10 BES   501      43.353  22.720 195.322  1.00  0.00     0.000 A 
HETATM   10  C11 BES   501      42.976  21.554 194.631  1.00  0.00     0.001 A 
HETATM   11  C12 BES   501      43.960  20.689 194.104  1.00  0.00     0.007 A 
ENDBRANCH   5   6
ENDBRANCH   4   5
BRANCH   4  12
HETATM   12  C2  BES   501      46.631  17.646 194.130  1.00  0.00     0.232 C 
BRANCH  12  13
HETATM   13  O2  BES   501      46.419  16.397 193.612  1.00  0.00    -0.384 OA
HETATM   14  H12 BES   501      45.441  16.087 193.832  1.00  0.00     0.210 HD
ENDBRANCH  12  13
BRANCH  12  15
HETATM   15  C3  BES   501      46.209  17.681 195.570  1.00  0.00     0.249 C 
HETATM   16  O3  BES   501      47.083  17.717 196.407  1.00  0.00    -0.271 OA
HETATM   17  N1  BES   501      44.777  17.672 195.897  1.00  0.00    -0.344 N 
HETATM   18  H23 BES   501      44.080  17.651 195.084  1.00  0.00     0.163 HD
BRANCH  17  19
HETATM   19  C4  BES   501      44.234  17.691 197.255  1.00  0.00     0.185 C 
BRANCH  19  20
HETATM   20  C13 BES   501      43.471  18.999 197.486  1.00  0.00     0.040 C 
BRANCH  20  21
HETATM   21  C14 BES   501      44.415  20.093 197.940  1.00  0.00    -0.020 C 
HETATM   22  C15 BES   501      43.609  21.208 198.609  1.00  0.00     0.009 C 
HETATM   23  C16 BES   501      45.443  19.560 198.889  1.00  0.00     0.009 C 
ENDBRANCH  20  21
ENDBRANCH  19  20
BRANCH  19  24
HETATM   24  C5  BES   501      43.274  16.554 197.371  1.00  0.00     0.196 C 
HETATM   25  O1  BES   501      42.581  16.433 198.418  1.00  0.00    -0.646 OA
HETATM   26  O4  BES   501      43.165  15.778 196.369  1.00  0.00    -0.646 OA
ENDBRANCH  19  24
ENDBRANCH  17  19
ENDBRANCH  12  15
ENDBRANCH   4  12
ENDBRANCH   1   4
TORSDOF 10
REMARK  9 active torsions:
REMARK  status: ('A' for Active; 'I' for Inactive)
REMARK    1  A    between atoms: C70_1  and  C1_2 
REMARK    2  A    between atoms: C70_1  and  N12_20 
REMARK    3  A    between atoms: C1_2  and  C2_3 
REMARK    4  A    between atoms: C2_3  and  C3_4 
REMARK    5  A    between atoms: C2_3  and  O5_17 
REMARK       I    between atoms: C3_4  and  N1_6 
REMARK    6  A    between atoms: N1_6  and  C4_7 
REMARK    7  A    between atoms: C4_7  and  C13_8 
REMARK    8  A    between atoms: C4_7  and  C5_10 
REMARK    9  A    between atoms: C13_8  and  C7_9 
ROOT
HETATM    1  C70 BES A 501      41.870  13.634 193.705  1.00  6.08     0.232 C 
ENDROOT
BRANCH   1   2
HETATM    2  C1  BES A 501      41.920  14.608 192.687  1.00  6.71     0.068 C 
BRANCH   2   3
HETATM    3  C2  BES A 501      43.021  15.619 192.756  1.00  9.09     0.205 C 
BRANCH   3   4
HETATM    4  C3  BES A 501      42.429  16.968 193.047  1.00  8.29     0.227 C 
HETATM    5  O3  BES A 501      42.746  17.884 192.322  1.00  7.85    -0.277 OA
HETATM    6  N1  BES A 501      41.500  17.114 194.177  1.00  8.97    -0.246 NA
HETATM    7  H7  BES A 501      42.042  16.784 195.039  1.00  8.27     0.131 HD
BRANCH   6   8
HETATM    8  C4  BES A 501      40.864  18.371 194.571  1.00 10.85     0.169 C 
BRANCH   8   9
HETATM    9  C13 BES A 501      39.766  18.729 193.565  1.00  8.22     0.089 C 
BRANCH   9  10
HETATM   10  C7  BES A 501      40.057  20.091 192.908  1.00 11.21     0.029 A 
HETATM   11  C21 BES A 501      39.427  21.440 193.304  1.00  0.00     0.143 A 
HETATM   12  N22 BES A 501      40.010  22.526 192.382  1.00  0.00    -0.254 N 
HETATM   13  C23 BES A 501      41.000  21.849 191.415  1.00  0.00     0.207 A 
HETATM   14  N24 BES A 501      41.029  20.343 191.741  1.00  0.00    -0.353 N 
HETATM   15  H13 BES A 501      41.621  19.604 191.244  1.00  8.23     0.166 HD
ENDBRANCH   9  10
ENDBRANCH   8   9
BRANCH   8  16
HETATM   16  C5  BES A 501      40.233  18.154 195.907  1.00 10.09     0.192 C 
HETATM   17  O1  BES A 501      39.939  19.153 196.622  1.00  5.58    -0.647 OA
HETATM   18  O4  BES A 501      39.978  16.957 196.243  1.00  5.29    -0.647 OA
ENDBRANCH   8  16
ENDBRANCH   6   8
ENDBRANCH   3   4
BRANCH   3  19
HETATM   19  O5  BES A 501      43.979  15.246 193.848  1.00  8.27    -0.387 OA
HETATM   20  H15 BES A 501      43.441  14.936 194.695  1.00  8.22     0.210 HD
ENDBRANCH   3  19
ENDBRANCH   2   3
ENDBRANCH   1   2
BRANCH   1  21
HETATM   21  N12 BES A 501      41.150  14.204 194.918  1.00  8.22    -0.079 N 
HETATM   22  H14 BES A 501      40.936  13.416 195.608  1.00  8.22     0.274 HD
HETATM   23  H15 BES A 501      40.236  14.664 194.607  1.00  8.22     0.274 HD
HETATM   24  H1  BES A 501      41.773  14.934 195.392  1.00  8.22     0.274 HD
ENDBRANCH   1  21
TORSDOF 9
ENDMDL
MODEL 4
REMARK VINA RESULT:    -1.757      3.189      6.264
REMARK INTER + INTRA:          -7.251
REMARK INTER:                  -4.348
REMARK INTRA:                  -2.903
REMARK UNBOUND:                -3.747
REMARK  10 active torsions:
REMARK  status: ('A' for Active; 'I' for Inactive)
REMARK    1  A    between atoms: N2_1  and  C1_2 
REMARK    2  A    between atoms: C1_2  and  C6_3 
REMARK    3  A    between atoms: C1_2  and  C2_10 
REMARK    4  A    between atoms: C6_3  and  C7_4 
REMARK    5  A    between atoms: C2_10  and  O2_11 
REMARK    6  A    between atoms: C2_10  and  C3_12 
REMARK       I    between atoms: C3_12  and  N1_14 
REMARK    7  A    between atoms: N1_14  and  C4_15 
REMARK    8  A    between atoms: C4_15  and  C13_16 
REMARK    9  A    between atoms: C4_15  and  C5_20 
REMARK   10  A    between atoms: C13_16  and  C14_17 
ROOT
HETATM    1  N2  BES   501      41.680  18.810 190.897  1.00  0.00    -0.423 N 
HETATM    2  H1  BES   501      42.392  19.470 190.446  1.00  0.00     0.150 HD
HETATM    3  H2  BES   501      40.711  19.174 191.169  1.00  0.00     0.150 HD
ENDROOT
BRANCH   1   4
HETATM    4  C1  BES   501      42.025  17.436 191.138  1.00  0.00     0.116 C 
BRANCH   4   5
HETATM    5  C6  BES   501      43.036  16.794 190.183  1.00  0.00     0.066 C 
BRANCH   5   6
HETATM    6  C7  BES   501      44.376  16.433 190.845  1.00  0.00    -0.056 A 
HETATM    7  C8  BES   501      45.033  15.214 190.565  1.00  0.00     0.007 A 
HETATM    8  C9  BES   501      46.265  14.913 191.186  1.00  0.00     0.001 A 
HETATM    9  C10 BES   501      46.844  15.821 192.067  1.00  0.00     0.000 A 
HETATM   10  C11 BES   501      46.193  17.038 192.340  1.00  0.00     0.001 A 
HETATM   11  C12 BES   501      44.960  17.341 191.721  1.00  0.00     0.007 A 
ENDBRANCH   5   6
ENDBRANCH   4   5
BRANCH   4  12
HETATM   12  C2  BES   501      40.754  16.656 191.001  1.00  0.00     0.232 C 
BRANCH  12  13
HETATM   13  O2  BES   501      39.772  17.502 190.561  1.00  0.00    -0.384 OA
HETATM   14  H12 BES   501      40.130  18.061 189.748  1.00  0.00     0.210 HD
ENDBRANCH  12  13
BRANCH  12  15
HETATM   15  C3  BES   501      40.380  16.090 192.341  1.00  0.00     0.249 C 
HETATM   16  O3  BES   501      39.337  15.481 192.416  1.00  0.00    -0.271 OA
HETATM   17  N1  BES   501      41.281  16.297 193.482  1.00  0.00    -0.344 N 
HETATM   18  H23 BES   501      42.187  16.841 193.310  1.00  0.00     0.163 HD
BRANCH  17  19
HETATM   19  C4  BES   501      41.029  15.810 194.838  1.00  0.00     0.185 C 
BRANCH  19  20
HETATM   20  C13 BES   501      42.173  14.889 195.275  1.00  0.00     0.040 C 
BRANCH  20  21
HETATM   21  C14 BES   501      43.389  15.097 194.395  1.00  0.00    -0.020 C 
HETATM   22  C15 BES   501      44.510  15.723 195.226  1.00  0.00     0.009 C 
HETATM   23  C16 BES   501      43.851  13.805 193.798  1.00  0.00     0.009 C 
ENDBRANCH  20  21
ENDBRANCH  19  20
BRANCH  19  24
HETATM   24  C5  BES   501      41.003  16.997 195.743  1.00  0.00     0.196 C 
HETATM   25  O1  BES   501      41.376  16.870 196.942  1.00  0.00    -0.646 OA
HETATM   26  O4  BES   501      40.645  18.107 195.238  1.00  0.00    -0.646 OA
ENDBRANCH  19  24
ENDBRANCH  17  19
ENDBRANCH  12  15
ENDBRANCH   4  12
ENDBRANCH   1   4
TORSDOF 10
REMARK  9 active torsions:
REMARK  status: ('A' for Active; 'I' for Inactive)
REMARK    1  A    between atoms: C70_1  and  C1_2 
REMARK    2  A    between atoms: C70_1  and  N12_20 
REMARK    3  A    between atoms: C1_2  and  C2_3 
REMARK    4  A    between atoms: C2_3  and  C3_4 
REMARK    5  A    between atoms: C2_3  and  O5_17 
REMARK       I    between atoms: C3_4  and  N1_6 
REMARK    6  A    between atoms: N1_6  and  C4_7 
REMARK    7  A    between atoms: C4_7  and  C13_8 
REMARK    8  A    between atoms: C4_7  and  C5_10 
REMARK    9  A    between atoms: C13_8  and  C7_9 
ROOT
HETATM    1  C70 BES A 501      37.697  20.370 194.651  1.00  6.08     0.232 C 
ENDROOT
BRANCH   1   2
HETATM    2  C1  BES A 501      38.456  21.353 193.985  1.00  6.71     0.068 C 
BRANCH   2   3
HETATM    3  C2  BES A 501      39.525  20.880 193.050  1.00  9.09     0.205 C 
BRANCH   3   4
HETATM    4  C3  BES A 501      40.861  21.328 193.569  1.00  8.29     0.227 C 
HETATM    5  O3  BES A 501      40.952  22.469 193.962  1.00  7.85    -0.277 OA
HETATM    6  N1  BES A 501      41.981  20.375 193.583  1.00  8.97    -0.246 NA
HETATM    7  H7  BES A 501      42.097  20.053 192.569  1.00  8.27     0.131 HD
BRANCH   6   8
HETATM    8  C4  BES A 501      43.331  20.688 194.052  1.00 10.85     0.169 C 
BRANCH   8   9
HETATM    9  C13 BES A 501      43.955  19.442 194.688  1.00  8.22     0.089 C 
BRANCH   9  10
HETATM   10  C7  BES A 501      43.708  19.430 196.209  1.00 11.21     0.029 A 
HETATM   11  C21 BES A 501      44.667  18.869 197.276  1.00  0.00     0.143 A 
HETATM   12  N22 BES A 501      44.011  19.069 198.655  1.00  0.00    -0.254 N 
HETATM   13  C23 BES A 501      42.648  19.752 198.440  1.00  0.00     0.207 A 
HETATM   14  N24 BES A 501      42.461  19.975 196.927  1.00  0.00    -0.353 N 
HETATM   15  H13 BES A 501      41.613  20.429 196.459  1.00  8.23     0.166 HD
ENDBRANCH   9  10
ENDBRANCH   8   9
BRANCH   8  16
HETATM   16  C5  BES A 501      44.143  21.070 192.858  1.00 10.09     0.192 C 
HETATM   17  O1  BES A 501      45.172  21.784 193.013  1.00  5.58    -0.647 OA
HETATM   18  O4  BES A 501      43.776  20.610 191.733  1.00  5.29    -0.647 OA
ENDBRANCH   8  16
ENDBRANCH   6   8
ENDBRANCH   3   4
BRANCH   3  19
HETATM   19  O5  BES A 501      39.496  19.382 192.967  1.00  8.27    -0.387 OA
HETATM   20  H15 BES A 501      38.549  19.069 192.638  1.00  8.22     0.210 HD
ENDBRANCH   3  19
ENDBRANCH   2   3
ENDBRANCH   1   2
BRANCH   1  21
HETATM   21  N12 BES A 501      38.448  19.901 195.888  1.00  8.22    -0.079 N 
HETATM   22  H14 BES A 501      37.748  19.663 196.660  1.00  8.22     0.274 HD
HETATM   23  H15 BES A 501      39.100  20.678 196.225  1.00  8.22     0.274 HD
HETATM   24  H1  BES A 501      39.023  19.032 195.648  1.00  8.22     0.274 HD
ENDBRANCH   1  21
TORSDOF 9
ENDMDL
MODEL 5
REMARK VINA RESULT:    -1.752      4.550      7.647
REMARK INTER + INTRA:          -7.241
REMARK INTER:                  -4.059
REMARK INTRA:                  -3.182
REMARK UNBOUND:                -3.747
REMARK  10 active torsions:
REMARK  status: ('A' for Active; 'I' for Inactive)
REMARK    1  A    between atoms: N2_1  and  C1_2 
REMARK    2  A    between atoms: C1_2  and  C6_3 
REMARK    3  A    between atoms: C1_2  and  C2_10 
REMARK    4  A    between atoms: C6_3  and  C7_4 
REMARK    5  A    between atoms: C2_10  and  O2_11 
REMARK    6  A    between atoms: C2_10  and  C3_12 
REMARK       I    between atoms: C3_12  and  N1_14 
REMARK    7  A    between atoms: N1_14  and  C4_15 
REMARK    8  A    between atoms: C4_15  and  C13_16 
REMARK    9  A    between atoms: C4_15  and  C5_20 
REMARK   10  A    between atoms: C13_16  and  C14_17 
ROOT
HETATM    1  N2  BES   501      37.290  11.698 199.254  1.00  0.00    -0.423 N 
HETATM    2  H1  BES   501      36.562  11.485 198.499  1.00  0.00     0.150 HD
HETATM    3  H2  BES   501      37.246  11.193 200.197  1.00  0.00     0.150 HD
ENDROOT
BRANCH   1   4
HETATM    4  C1  BES   501      38.326  12.661 199.002  1.00  0.00     0.116 C 
BRANCH   4   5
HETATM    5  C6  BES   501      39.743  12.295 199.456  1.00  0.00     0.066 C 
BRANCH   5   6
HETATM    6  C7  BES   501      40.766  12.230 198.309  1.00  0.00    -0.056 A 
HETATM    7  C8  BES   501      40.581  11.370 197.204  1.00  0.00     0.007 A 
HETATM    8  C9  BES   501      41.536  11.337 196.164  1.00  0.00     0.001 A 
HETATM    9  C10 BES   501      42.657  12.160 196.217  1.00  0.00     0.000 A 
HETATM   10  C11 BES   501      42.836  13.021 197.315  1.00  0.00     0.001 A 
HETATM   11  C12 BES   501      41.883  13.056 198.356  1.00  0.00     0.007 A 
ENDBRANCH   5   6
ENDBRANCH   4   5
BRANCH   4  12
HETATM   12  C2  BES   501      37.942  13.895 199.759  1.00  0.00     0.232 C 
BRANCH  12  13
HETATM   13  O2  BES   501      36.699  13.702 200.299  1.00  0.00    -0.384 OA
HETATM   14  H12 BES   501      36.167  14.606 200.286  1.00  0.00     0.210 HD
ENDBRANCH  12  13
BRANCH  12  15
HETATM   15  C3  BES   501      37.913  15.061 198.814  1.00  0.00     0.249 C 
HETATM   16  O3  BES   501      38.228  16.144 199.254  1.00  0.00    -0.271 OA
HETATM   17  N1  BES   501      37.513  14.841 197.418  1.00  0.00    -0.344 N 
HETATM   18  H23 BES   501      37.264  13.842 197.122  1.00  0.00     0.163 HD
BRANCH  17  19
HETATM   19  C4  BES   501      37.433  15.889 196.401  1.00  0.00     0.185 C 
BRANCH  19  20
HETATM   20  C13 BES   501      38.071  15.394 195.099  1.00  0.00     0.040 C 
BRANCH  20  21
HETATM   21  C14 BES   501      39.261  14.504 195.395  1.00  0.00    -0.020 C 
HETATM   22  C15 BES   501      39.452  13.520 194.240  1.00  0.00     0.009 C 
HETATM   23  C16 BES   501      40.504  15.313 195.593  1.00  0.00     0.009 C 
ENDBRANCH  20  21
ENDBRANCH  19  20
BRANCH  19  24
HETATM   24  C5  BES   501      35.986  16.159 196.148  1.00  0.00     0.196 C 
HETATM   25  O1  BES   501      35.180  16.174 197.119  1.00  0.00    -0.646 OA
HETATM   26  O4  BES   501      35.642  16.414 194.951  1.00  0.00    -0.646 OA
ENDBRANCH  19  24
ENDBRANCH  17  19
ENDBRANCH  12  15
ENDBRANCH   4  12
ENDBRANCH   1   4
TORSDOF 10
REMARK  9 active torsions:
REMARK  status: ('A' for Active; 'I' for Inactive)
REMARK    1  A    between atoms: C70_1  and  C1_2 
REMARK    2  A    between atoms: C70_1  and  N12_20 
REMARK    3  A    between atoms: C1_2  and  C2_3 
REMARK    4  A    between atoms: C2_3  and  C3_4 
REMARK    5  A    between atoms: C2_3  and  O5_17 
REMARK       I    between atoms: C3_4  and  N1_6 
REMARK    6  A    between atoms: N1_6  and  C4_7 
REMARK    7  A    between atoms: C4_7  and  C13_8 
REMARK    8  A    between atoms: C4_7  and  C5_10 
REMARK    9  A    between atoms: C13_8  and  C7_9 
ROOT
HETATM    1  C70 BES A 501      32.506  13.762 196.762  1.00  6.08     0.232 C 
ENDROOT
BRANCH   1   2
HETATM    2  C1  BES A 501      33.147  12.535 196.499  1.00  6.71     0.068 C 
BRANCH   2   3
HETATM    3  C2  BES A 501      34.531  12.352 197.038  1.00  9.09     0.205 C 
BRANCH   3   4
HETATM    4  C3  BES A 501      35.510  12.421 195.901  1.00  8.29     0.227 C 
HETATM    5  O3  BES A 501      36.667  12.158 196.145  1.00  7.85    -0.277 OA
HETATM    6  N1  BES A 501      35.029  12.793 194.563  1.00  8.97    -0.246 NA
HETATM    7  H7  BES A 501      34.570  13.753 194.679  1.00  8.27     0.131 HD
BRANCH   6   8
HETATM    8  C4  BES A 501      35.879  12.906 193.377  1.00 10.85     0.169 C 
BRANCH   8   9
HETATM    9  C13 BES A 501      35.905  11.567 192.634  1.00  8.22     0.089 C 
BRANCH   9  10
HETATM   10  C7  BES A 501      37.272  10.877 192.811  1.00 11.21     0.029 A 
HETATM   11  C21 BES A 501      38.374  10.766 191.740  1.00  0.00     0.143 A 
HETATM   12  N22 BES A 501      39.558   9.999 192.356  1.00  0.00    -0.254 N 
HETATM   13  C23 BES A 501      39.189   9.635 193.807  1.00  0.00     0.207 A 
HETATM   14  N24 BES A 501      37.775  10.179 194.088  1.00  0.00    -0.353 N 
HETATM   15  H13 BES A 501      37.237  10.088 195.008  1.00  8.23     0.166 HD
ENDBRANCH   9  10
ENDBRANCH   8   9
BRANCH   8  16
HETATM   16  C5  BES A 501      35.267  13.934 192.483  1.00 10.09     0.192 C 
HETATM   17  O1  BES A 501      35.874  14.279 191.431  1.00  5.58    -0.647 OA
HETATM   18  O4  BES A 501      34.125  14.383 192.808  1.00  5.29    -0.647 OA
ENDBRANCH   8  16
ENDBRANCH   6   8
ENDBRANCH   3   4
BRANCH   3  19
HETATM   19  O5  BES A 501      34.834  13.438 198.027  1.00  8.27    -0.387 OA
HETATM   20  H15 BES A 501      34.067  13.482 198.743  1.00  8.22     0.210 HD
ENDBRANCH   3  19
ENDBRANCH   2   3
ENDBRANCH   1   2
BRANCH   1  21
HETATM   21  N12 BES A 501      32.891  14.775 195.694  1.00  8.22    -0.079 N 
HETATM   22  H14 BES A 501      32.124  15.516 195.613  1.00  8.22     0.274 HD
HETATM   23  H15 BES A 501      33.006  14.277 194.755  1.00  8.22     0.274 HD
HETATM   24  H1  BES A 501      33.814  15.245 195.964  1.00  8.22     0.274 HD
ENDBRANCH   1  21
TORSDOF 9
ENDMDL
MODEL 6
REMARK VINA RESULT:    -1.748      3.930      6.038
REMARK INTER + INTRA:          -7.233
REMARK INTER:                  -4.065
REMARK INTRA:                  -3.168
REMARK UNBOUND:                -3.747
REMARK  10 active torsions:
REMARK  status: ('A' for Active; 'I' for Inactive)
REMARK    1  A    between atoms: N2_1  and  C1_2 
REMARK    2  A    between atoms: C1_2  and  C6_3 
REMARK    3  A    between atoms: C1_2  and  C2_10 
REMARK    4  A    between atoms: C6_3  and  C7_4 
REMARK    5  A    between atoms: C2_10  and  O2_11 
REMARK    6  A    between atoms: C2_10  and  C3_12 
REMARK       I    between atoms: C3_12  and  N1_14 
REMARK    7  A    between atoms: N1_14  and  C4_15 
REMARK    8  A    between atoms: C4_15  and  C13_16 
REMARK    9  A    between atoms: C4_15  and  C5_20 
REMARK   10  A    between atoms: C13_16  and  C14_17 
ROOT
HETATM    1  N2  BES   501      36.885  14.964 200.841  1.00  0.00    -0.423 N 
HETATM    2  H1  BES   501      36.434  15.869 200.491  1.00  0.00     0.150 HD
HETATM    3  H2  BES   501      36.545  14.513 201.750  1.00  0.00     0.150 HD
ENDROOT
BRANCH   1   4
HETATM    4  C1  BES   501      37.947  14.353 200.090  1.00  0.00     0.116 C 
BRANCH   4   5
HETATM    5  C6  BES   501      38.655  13.156 200.733  1.00  0.00     0.066 C 
BRANCH   5   6
HETATM    6  C7  BES   501      38.697  11.905 199.839  1.00  0.00    -0.056 A 
HETATM    7  C8  BES   501      39.586  10.839 200.104  1.00  0.00     0.007 A 
HETATM    8  C9  BES   501      39.596   9.701 199.268  1.00  0.00     0.001 A 
HETATM    9  C10 BES   501      38.723   9.619 198.187  1.00  0.00     0.000 A 
HETATM   10  C11 BES   501      37.834  10.677 197.929  1.00  0.00     0.001 A 
HETATM   11  C12 BES   501      37.821  11.817 198.763  1.00  0.00     0.007 A 
ENDBRANCH   5   6
ENDBRANCH   4   5
BRANCH   4  12
HETATM   12  C2  BES   501      38.988  15.413 199.901  1.00  0.00     0.232 C 
BRANCH  12  13
HETATM   13  O2  BES   501      38.357  16.622 199.779  1.00  0.00    -0.384 OA
HETATM   14  H12 BES   501      37.576  16.541 199.084  1.00  0.00     0.210 HD
ENDBRANCH  12  13
BRANCH  12  15
HETATM   15  C3  BES   501      39.769  15.116 198.654  1.00  0.00     0.249 C 
HETATM   16  O3  BES   501      40.973  15.033 198.757  1.00  0.00    -0.271 OA
HETATM   17  N1  BES   501      39.052  14.940 197.385  1.00  0.00    -0.344 N 
HETATM   18  H23 BES   501      37.984  15.021 197.400  1.00  0.00     0.163 HD
BRANCH  17  19
HETATM   19  C4  BES   501      39.693  14.659 196.101  1.00  0.00     0.185 C 
BRANCH  19  20
HETATM   20  C13 BES   501      39.757  13.144 195.877  1.00  0.00     0.040 C 
BRANCH  20  21
HETATM   21  C14 BES   501      41.196  12.672 195.846  1.00  0.00    -0.020 C 
HETATM   22  C15 BES   501      42.115  13.873 195.620  1.00  0.00     0.009 C 
HETATM   23  C16 BES   501      41.563  11.975 197.119  1.00  0.00     0.009 C 
ENDBRANCH  20  21
ENDBRANCH  19  20
BRANCH  19  24
HETATM   24  C5  BES   501      38.841  15.261 195.032  1.00  0.00     0.196 C 
HETATM   25  O1  BES   501      38.098  16.242 195.312  1.00  0.00    -0.646 OA
HETATM   26  O4  BES   501      38.945  14.776 193.862  1.00  0.00    -0.646 OA
ENDBRANCH  19  24
ENDBRANCH  17  19
ENDBRANCH  12  15
ENDBRANCH   4  12
ENDBRANCH   1   4
TORSDOF 10
REMARK  9 active torsions:
REMARK  status: ('A' for Active; 'I' for Inactive)
REMARK    1  A    between atoms: C70_1  and  C1_2 
REMARK    2  A    between atoms: C70_1  and  N12_20 
REMARK    3  A    between atoms: C1_2  and  C2_3 
REMARK    4  A    between atoms: C2_3  and  C3_4 
REMARK    5  A    between atoms: C2_3  and  O5_17 
REMARK       I    between atoms: C3_4  and  N1_6 
REMARK    6  A    between atoms: N1_6  and  C4_7 
REMARK    7  A    between atoms: C4_7  and  C13_8 
REMARK    8  A    between atoms: C4_7  and  C5_10 
REMARK    9  A    between atoms: C13_8  and  C7_9 
ROOT
HETATM    1  C70 BES A 501      37.782  20.069 195.685  1.00  6.08     0.232 C 
ENDROOT
BRANCH   1   2
HETATM    2  C1  BES A 501      36.765  19.885 196.642  1.00  6.71     0.068 C 
BRANCH   2   3
HETATM    3  C2  BES A 501      36.895  18.717 197.569  1.00  9.09     0.205 C 
BRANCH   3   4
HETATM    4  C3  BES A 501      35.812  17.724 197.258  1.00  8.29     0.227 C 
HETATM    5  O3  BES A 501      35.103  17.952 196.304  1.00  7.85    -0.277 OA
HETATM    6  N1  BES A 501      35.665  16.535 198.110  1.00  8.97    -0.246 NA
HETATM    7  H7  BES A 501      35.515  16.909 199.102  1.00  8.27     0.131 HD
BRANCH   6   8
HETATM    8  C4  BES A 501      34.648  15.501 197.922  1.00 10.85     0.169 C 
BRANCH   8   9
HETATM    9  C13 BES A 501      35.324  14.172 197.572  1.00  8.22     0.089 C 
BRANCH   9  10
HETATM   10  C7  BES A 501      35.474  14.027 196.046  1.00 11.21     0.029 A 
HETATM   11  C21 BES A 501      35.971  12.775 195.300  1.00  0.00     0.143 A 
HETATM   12  N22 BES A 501      35.957  13.083 193.792  1.00  0.00    -0.254 N 
HETATM   13  C23 BES A 501      35.453  14.526 193.605  1.00  0.00     0.207 A 
HETATM   14  N24 BES A 501      35.154  15.110 194.999  1.00  0.00    -0.353 N 
HETATM   15  H13 BES A 501      34.788  16.094 195.203  1.00  8.23     0.166 HD
ENDBRANCH   9  10
ENDBRANCH   8   9
BRANCH   8  16
HETATM   16  C5  BES A 501      33.927  15.339 199.221  1.00 10.09     0.192 C 
HETATM   17  O1  BES A 501      33.126  14.375 199.368  1.00  5.58    -0.647 OA
HETATM   18  O4  BES A 501      34.196  16.169 200.143  1.00  5.29    -0.647 OA
ENDBRANCH   8  16
ENDBRANCH   6   8
ENDBRANCH   3   4
BRANCH   3  19
HETATM   19  O5  BES A 501      38.236  18.072 197.381  1.00  8.27    -0.387 OA
HETATM   20  H15 BES A 501      38.153  17.038 197.544  1.00  8.22     0.210 HD
ENDBRANCH   3  19
ENDBRANCH   2   3
ENDBRANCH   1   2
BRANCH   1  21
HETATM   21  N12 BES A 501      37.577  19.097 194.533  1.00  8.22    -0.079 N 
HETATM   22  H14 BES A 501      38.368  18.378 194.528  1.00  8.22     0.274 HD
HETATM   23  H15 BES A 501      37.578  19.634 193.608  1.00  8.22     0.274 HD
HETATM   24  H1  BES A 501      36.640  18.595 194.652  1.00  8.22     0.274 HD
ENDBRANCH   1  21
TORSDOF 9
ENDMDL
MODEL 7
REMARK VINA RESULT:    -1.734      4.410      8.479
REMARK INTER + INTRA:          -7.203
REMARK INTER:                  -3.957
REMARK INTRA:                  -3.246
REMARK UNBOUND:                -3.747
REMARK  10 active torsions:
REMARK  status: ('A' for Active; 'I' for Inactive)
REMARK    1  A    between atoms: N2_1  and  C1_2 
REMARK    2  A    between atoms: C1_2  and  C6_3 
REMARK    3  A    between atoms: C1_2  and  C2_10 
REMARK    4  A    between atoms: C6_3  and  C7_4 
REMARK    5  A    between atoms: C2_10  and  O2_11 
REMARK    6  A    between atoms: C2_10  and  C3_12 
REMARK       I    between atoms: C3_12  and  N1_14 
REMARK    7  A    between atoms: N1_14  and  C4_15 
REMARK    8  A    between atoms: C4_15  and  C13_16 
REMARK    9  A    between atoms: C4_15  and  C5_20 
REMARK   10  A    between atoms: C13_16  and  C14_17 
ROOT
HETATM    1  N2  BES   501      36.843  12.779 198.846  1.00  0.00    -0.423 N 
HETATM    2  H1  BES   501      37.540  12.454 198.102  1.00  0.00     0.150 HD
HETATM    3  H2  BES   501      36.385  12.065 199.498  1.00  0.00     0.150 HD
ENDROOT
BRANCH   1   4
HETATM    4  C1  BES   501      36.523  14.174 198.970  1.00  0.00     0.116 C 
BRANCH   4   5
HETATM    5  C6  BES   501      35.038  14.546 199.023  1.00  0.00     0.066 C 
BRANCH   5   6
HETATM    6  C7  BES   501      34.649  15.378 200.256  1.00  0.00    -0.056 A 
HETATM    7  C8  BES   501      33.447  16.120 200.296  1.00  0.00     0.007 A 
HETATM    8  C9  BES   501      33.114  16.870 201.445  1.00  0.00     0.001 A 
HETATM    9  C10 BES   501      33.964  16.874 202.547  1.00  0.00     0.000 A 
HETATM   10  C11 BES   501      35.157  16.130 202.509  1.00  0.00     0.001 A 
HETATM   11  C12 BES   501      35.491  15.378 201.362  1.00  0.00     0.007 A 
ENDBRANCH   5   6
ENDBRANCH   4   5
BRANCH   4  12
HETATM   12  C2  BES   501      37.086  14.842 197.753  1.00  0.00     0.232 C 
BRANCH  12  13
HETATM   13  O2  BES   501      38.309  14.289 197.483  1.00  0.00    -0.384 OA
HETATM   14  H12 BES   501      38.305  13.886 196.514  1.00  0.00     0.210 HD
ENDBRANCH  12  13
BRANCH  12  15
HETATM   15  C3  BES   501      37.237  16.310 198.024  1.00  0.00     0.249 C 
HETATM   16  O3  BES   501      36.678  17.077 197.272  1.00  0.00    -0.271 OA
HETATM   17  N1  BES   501      38.041  16.747 199.173  1.00  0.00    -0.344 N 
HETATM   18  H23 BES   501      38.485  15.990 199.787  1.00  0.00     0.163 HD
BRANCH  17  19
HETATM   19  C4  BES   501      38.276  18.142 199.541  1.00  0.00     0.185 C 
BRANCH  19  20
HETATM   20  C13 BES   501      37.691  18.415 200.931  1.00  0.00     0.040 C 
BRANCH  20  21
HETATM   21  C14 BES   501      36.697  19.558 200.875  1.00  0.00    -0.020 C 
HETATM   22  C15 BES   501      35.574  19.201 199.900  1.00  0.00     0.009 C 
HETATM   23  C16 BES   501      36.131  19.848 202.229  1.00  0.00     0.009 C 
ENDBRANCH  20  21
ENDBRANCH  19  20
BRANCH  19  24
HETATM   24  C5  BES   501      39.753  18.349 199.599  1.00  0.00     0.196 C 
HETATM   25  O1  BES   501      40.341  18.306 200.714  1.00  0.00    -0.646 OA
HETATM   26  O4  BES   501      40.363  18.513 198.495  1.00  0.00    -0.646 OA
ENDBRANCH  19  24
ENDBRANCH  17  19
ENDBRANCH  12  15
ENDBRANCH   4  12
ENDBRANCH   1   4
TORSDOF 10
REMARK  9 active torsions:
REMARK  status: ('A' for Active; 'I' for Inactive)
REMARK    1  A    between atoms: C70_1  and  C1_2 
REMARK    2  A    between atoms: C70_1  and  N12_20 
REMARK    3  A    between atoms: C1_2  and  C2_3 
REMARK    4  A    between atoms: C2_3  and  C3_4 
REMARK    5  A    between atoms: C2_3  and  O5_17 
REMARK       I    between atoms: C3_4  and  N1_6 
REMARK    6  A    between atoms: N1_6  and  C4_7 
REMARK    7  A    between atoms: C4_7  and  C13_8 
REMARK    8  A    between atoms: C4_7  and  C5_10 
REMARK    9  A    between atoms: C13_8  and  C7_9 
ROOT
HETATM    1  C70 BES A 501      43.172  16.783 196.973  1.00  6.08     0.232 C 
ENDROOT
BRANCH   1   2
HETATM    2  C1  BES A 501      43.001  15.498 197.527  1.00  6.71     0.068 C 
BRANCH   2   3
HETATM    3  C2  BES A 501      41.598  15.035 197.767  1.00  9.09     0.205 C 
BRANCH   3   4
HETATM    4  C3  BES A 501      41.388  14.856 199.243  1.00  8.29     0.227 C 
HETATM    5  O3  BES A 501      42.064  15.529 199.988  1.00  7.85    -0.277 OA
HETATM    6  N1  BES A 501      40.382  13.892 199.712  1.00  8.97    -0.246 NA
HETATM    7  H7  BES A 501      40.668  12.950 199.289  1.00  8.27     0.131 HD
BRANCH   6   8
HETATM    8  C4  BES A 501      40.089  13.617 201.118  1.00 10.85     0.169 C 
BRANCH   8   9
HETATM    9  C13 BES A 501      38.979  14.553 201.604  1.00  8.22     0.089 C 
BRANCH   9  10
HETATM   10  C7  BES A 501      39.524  15.540 202.654  1.00 11.21     0.029 A 
HETATM   11  C21 BES A 501      38.723  16.164 203.811  1.00  0.00     0.143 A 
HETATM   12  N22 BES A 501      39.670  17.084 204.603  1.00  0.00    -0.254 N 
HETATM   13  C23 BES A 501      41.056  17.030 203.935  1.00  0.00     0.207 A 
HETATM   14  N24 BES A 501      40.966  16.074 202.729  1.00  0.00    -0.353 N 
HETATM   15  H13 BES A 501      41.765  15.826 202.063  1.00  8.23     0.166 HD
ENDBRANCH   9  10
ENDBRANCH   8   9
BRANCH   8  16
HETATM   16  C5  BES A 501      39.597  12.209 201.207  1.00 10.09     0.192 C 
HETATM   17  O1  BES A 501      39.302  11.589 200.147  1.00  5.58    -0.647 OA
HETATM   18  O4  BES A 501      39.541  11.683 202.361  1.00  5.29    -0.647 OA
ENDBRANCH   8  16
ENDBRANCH   6   8
ENDBRANCH   3   4
BRANCH   3  19
HETATM   19  O5  BES A 501      40.633  16.057 197.243  1.00  8.27    -0.387 OA
HETATM   20  H15 BES A 501      39.650  15.742 197.437  1.00  8.22     0.210 HD
ENDBRANCH   3  19
ENDBRANCH   2   3
ENDBRANCH   1   2
BRANCH   1  21
HETATM   21  N12 BES A 501      43.139  17.823 198.082  1.00  8.22    -0.079 N 
HETATM   22  H14 BES A 501      43.424  17.367 199.007  1.00  8.22     0.274 HD
HETATM   23  H15 BES A 501      42.149  18.219 198.170  1.00  8.22     0.274 HD
HETATM   24  H1  BES A 501      43.820  18.614 197.849  1.00  8.22     0.274 HD
ENDBRANCH   1  21
TORSDOF 9
ENDMDL
MODEL 8
REMARK VINA RESULT:    -1.733      4.938      8.522
REMARK INTER + INTRA:          -7.202
REMARK INTER:                  -3.824
REMARK INTRA:                  -3.378
REMARK UNBOUND:                -3.747
REMARK  10 active torsions:
REMARK  status: ('A' for Active; 'I' for Inactive)
REMARK    1  A    between atoms: N2_1  and  C1_2 
REMARK    2  A    between atoms: C1_2  and  C6_3 
REMARK    3  A    between atoms: C1_2  and  C2_10 
REMARK    4  A    between atoms: C6_3  and  C7_4 
REMARK    5  A    between atoms: C2_10  and  O2_11 
REMARK    6  A    between atoms: C2_10  and  C3_12 
REMARK       I    between atoms: C3_12  and  N1_14 
REMARK    7  A    between atoms: N1_14  and  C4_15 
REMARK    8  A    between atoms: C4_15  and  C13_16 
REMARK    9  A    between atoms: C4_15  and  C5_20 
REMARK   10  A    between atoms: C13_16  and  C14_17 
ROOT
HETATM    1  N2  BES   501      34.562  15.173 194.612  1.00  0.00    -0.423 N 
HETATM    2  H1  BES   501      34.132  14.727 193.739  1.00  0.00     0.150 HD
HETATM    3  H2  BES   501      33.928  15.555 195.385  1.00  0.00     0.150 HD
ENDROOT
BRANCH   1   4
HETATM    4  C1  BES   501      35.990  15.259 194.746  1.00  0.00     0.116 C 
BRANCH   4   5
HETATM    5  C6  BES   501      36.611  16.658 194.699  1.00  0.00     0.066 C 
BRANCH   5   6
HETATM    6  C7  BES   501      37.180  17.131 196.048  1.00  0.00    -0.056 A 
HETATM    7  C8  BES   501      36.674  16.644 197.273  1.00  0.00     0.007 A 
HETATM    8  C9  BES   501      37.220  17.094 198.496  1.00  0.00     0.001 A 
HETATM    9  C10 BES   501      38.267  18.010 198.498  1.00  0.00     0.000 A 
HETATM   10  C11 BES   501      38.775  18.490 197.277  1.00  0.00     0.001 A 
HETATM   11  C12 BES   501      38.231  18.041 196.053  1.00  0.00     0.007 A 
ENDBRANCH   5   6
ENDBRANCH   4   5
BRANCH   4  12
HETATM   12  C2  BES   501      36.565  14.499 193.590  1.00  0.00     0.232 C 
BRANCH  12  13
HETATM   13  O2  BES   501      35.757  13.422 193.336  1.00  0.00    -0.384 OA
HETATM   14  H12 BES   501      35.973  12.654 194.017  1.00  0.00     0.210 HD
ENDBRANCH  12  13
BRANCH  12  15
HETATM   15  C3  BES   501      37.945  14.030 193.949  1.00  0.00     0.249 C 
HETATM   16  O3  BES   501      38.800  14.111 193.096  1.00  0.00    -0.271 OA
HETATM   17  N1  BES   501      38.194  13.504 195.297  1.00  0.00    -0.344 N 
HETATM   18  H23 BES   501      37.373  13.485 195.985  1.00  0.00     0.163 HD
BRANCH  17  19
HETATM   19  C4  BES   501      39.486  13.006 195.769  1.00  0.00     0.185 C 
BRANCH  19  20
HETATM   20  C13 BES   501      39.717  13.461 197.214  1.00  0.00     0.040 C 
BRANCH  20  21
HETATM   21  C14 BES   501      40.042  14.941 197.260  1.00  0.00    -0.020 C 
HETATM   22  C15 BES   501      40.684  15.273 198.607  1.00  0.00     0.009 C 
HETATM   23  C16 BES   501      40.959  15.327 196.143  1.00  0.00     0.009 C 
ENDBRANCH  20  21
ENDBRANCH  19  20
BRANCH  19  24
HETATM   24  C5  BES   501      39.428  11.514 195.745  1.00  0.00     0.196 C 
HETATM   25  O1  BES   501      39.783  10.897 194.704  1.00  0.00    -0.646 OA
HETATM   26  O4  BES   501      39.063  10.928 196.813  1.00  0.00    -0.646 OA
ENDBRANCH  19  24
ENDBRANCH  17  19
ENDBRANCH  12  15
ENDBRANCH   4  12
ENDBRANCH   1   4
TORSDOF 10
REMARK  9 active torsions:
REMARK  status: ('A' for Active; 'I' for Inactive)
REMARK    1  A    between atoms: C70_1  and  C1_2 
REMARK    2  A    between atoms: C70_1  and  N12_20 
REMARK    3  A    between atoms: C1_2  and  C2_3 
REMARK    4  A    between atoms: C2_3  and  C3_4 
REMARK    5  A    between atoms: C2_3  and  O5_17 
REMARK       I    between atoms: C3_4  and  N1_6 
REMARK    6  A    between atoms: N1_6  and  C4_7 
REMARK    7  A    between atoms: C4_7  and  C13_8 
REMARK    8  A    between atoms: C4_7  and  C5_10 
REMARK    9  A    between atoms: C13_8  and  C7_9 
ROOT
HETATM    1  C70 BES A 501      38.951   8.903 199.881  1.00  6.08     0.232 C 
ENDROOT
BRANCH   1   2
HETATM    2  C1  BES A 501      37.600   8.505 199.854  1.00  6.71     0.068 C 
BRANCH   2   3
HETATM    3  C2  BES A 501      36.976   8.278 198.513  1.00  9.09     0.205 C 
BRANCH   3   4
HETATM    4  C3  BES A 501      35.915   9.316 198.286  1.00  8.29     0.227 C 
HETATM    5  O3  BES A 501      34.761   8.972 198.416  1.00  7.85    -0.277 OA
HETATM    6  N1  BES A 501      36.316  10.684 197.928  1.00  8.97    -0.246 NA
HETATM    7  H7  BES A 501      36.898  10.589 197.035  1.00  8.27     0.131 HD
BRANCH   6   8
HETATM    8  C4  BES A 501      35.383  11.782 197.671  1.00 10.85     0.169 C 
BRANCH   8   9
HETATM    9  C13 BES A 501      36.001  13.102 198.142  1.00  8.22     0.089 C 
BRANCH   9  10
HETATM   10  C7  BES A 501      36.490  12.981 199.598  1.00 11.21     0.029 A 
HETATM   11  C21 BES A 501      37.611  13.813 200.248  1.00  0.00     0.143 A 
HETATM   12  N22 BES A 501      37.756  13.354 201.711  1.00  0.00    -0.254 N 
HETATM   13  C23 BES A 501      36.726  12.237 201.964  1.00  0.00     0.207 A 
HETATM   14  N24 BES A 501      35.943  12.007 200.658  1.00  0.00    -0.353 N 
HETATM   15  H13 BES A 501      35.157  11.296 200.513  1.00  8.23     0.166 HD
ENDBRANCH   9  10
ENDBRANCH   8   9
BRANCH   8  16
HETATM   16  C5  BES A 501      35.173  11.856 196.194  1.00 10.09     0.192 C 
HETATM   17  O1  BES A 501      36.019  11.325 195.422  1.00  5.58    -0.647 OA
HETATM   18  O4  BES A 501      34.111  12.419 195.785  1.00  5.29    -0.647 OA
ENDBRANCH   8  16
ENDBRANCH   6   8
ENDBRANCH   3   4
BRANCH   3  19
HETATM   19  O5  BES A 501      38.023   8.390 197.445  1.00  8.27    -0.387 OA
HETATM   20  H15 BES A 501      37.787   7.741 196.654  1.00  8.22     0.210 HD
ENDBRANCH   3  19
ENDBRANCH   2   3
ENDBRANCH   1   2
BRANCH   1  21
HETATM   21  N12 BES A 501      39.043  10.404 199.655  1.00  8.22    -0.079 N 
HETATM   22  H14 BES A 501      38.835  10.623 198.628  1.00  8.22     0.274 HD
HETATM   23  H15 BES A 501      40.027  10.743 199.900  1.00  8.22     0.274 HD
HETATM   24  H1  BES A 501      38.329  10.903 200.276  1.00  8.22     0.274 HD
ENDBRANCH   1  21
TORSDOF 9
ENDMDL
MODEL 9
REMARK VINA RESULT:    -1.727      2.713      5.155
REMARK INTER + INTRA:          -7.191
REMARK INTER:                  -3.558
REMARK INTRA:                  -3.633
REMARK UNBOUND:                -3.747
REMARK  10 active torsions:
REMARK  status: ('A' for Active; 'I' for Inactive)
REMARK    1  A    between atoms: N2_1  and  C1_2 
REMARK    2  A    between atoms: C1_2  and  C6_3 
REMARK    3  A    between atoms: C1_2  and  C2_10 
REMARK    4  A    between atoms: C6_3  and  C7_4 
REMARK    5  A    between atoms: C2_10  and  O2_11 
REMARK    6  A    between atoms: C2_10  and  C3_12 
REMARK       I    between atoms: C3_12  and  N1_14 
REMARK    7  A    between atoms: N1_14  and  C4_15 
REMARK    8  A    between atoms: C4_15  and  C13_16 
REMARK    9  A    between atoms: C4_15  and  C5_20 
REMARK   10  A    between atoms: C13_16  and  C14_17 
ROOT
HETATM    1  N2  BES   501      41.748  14.232 198.485  1.00  0.00    -0.423 N 
HETATM    2  H1  BES   501      41.862  13.198 198.735  1.00  0.00     0.150 HD
HETATM    3  H2  BES   501      41.050  14.838 199.025  1.00  0.00     0.150 HD
ENDROOT
BRANCH   1   4
HETATM    4  C1  BES   501      42.530  14.805 197.425  1.00  0.00     0.116 C 
BRANCH   4   5
HETATM    5  C6  BES   501      44.003  14.393 197.344  1.00  0.00     0.066 C 
BRANCH   5   6
HETATM    6  C7  BES   501      44.370  13.649 196.049  1.00  0.00    -0.056 A 
HETATM    7  C8  BES   501      45.696  13.240 195.784  1.00  0.00     0.007 A 
HETATM    8  C9  BES   501      46.001  12.554 194.588  1.00  0.00     0.001 A 
HETATM    9  C10 BES   501      44.995  12.267 193.670  1.00  0.00     0.000 A 
HETATM   10  C11 BES   501      43.673  12.669 193.938  1.00  0.00     0.001 A 
HETATM   11  C12 BES   501      43.366  13.355 195.134  1.00  0.00     0.007 A 
ENDBRANCH   5   6
ENDBRANCH   4   5
BRANCH   4  12
HETATM   12  C2  BES   501      42.514  16.286 197.648  1.00  0.00     0.232 C 
BRANCH  12  13
HETATM   13  O2  BES   501      41.264  16.645 198.077  1.00  0.00    -0.384 OA
HETATM   14  H12 BES   501      41.347  17.372 198.829  1.00  0.00     0.210 HD
ENDBRANCH  12  13
BRANCH  12  15
HETATM   15  C3  BES   501      42.829  16.980 196.355  1.00  0.00     0.249 C 
HETATM   16  O3  BES   501      43.749  17.768 196.356  1.00  0.00    -0.271 OA
HETATM   17  N1  BES   501      42.024  16.677 195.165  1.00  0.00    -0.344 N 
HETATM   18  H23 BES   501      41.240  15.955 195.264  1.00  0.00     0.163 HD
BRANCH  17  19
HETATM   19  C4  BES   501      42.220  17.290 193.851  1.00  0.00     0.185 C 
BRANCH  19  20
HETATM   20  C13 BES   501      42.987  16.324 192.942  1.00  0.00     0.040 C 
BRANCH  20  21
HETATM   21  C14 BES   501      44.385  16.844 192.673  1.00  0.00    -0.020 C 
HETATM   22  C15 BES   501      44.406  18.359 192.877  1.00  0.00     0.009 C 
HETATM   23  C16 BES   501      45.386  16.189 193.571  1.00  0.00     0.009 C 
ENDBRANCH  20  21
ENDBRANCH  19  20
BRANCH  19  24
HETATM   24  C5  BES   501      40.869  17.527 193.261  1.00  0.00     0.196 C 
HETATM   25  O1  BES   501      40.532  16.905 192.216  1.00  0.00    -0.646 OA
HETATM   26  O4  BES   501      40.094  18.323 193.879  1.00  0.00    -0.646 OA
ENDBRANCH  19  24
ENDBRANCH  17  19
ENDBRANCH  12  15
ENDBRANCH   4  12
ENDBRANCH   1   4
TORSDOF 10
REMARK  9 active torsions:
REMARK  status: ('A' for Active; 'I' for Inactive)
REMARK    1  A    between atoms: C70_1  and  C1_2 
REMARK    2  A    between atoms: C70_1  and  N12_20 
REMARK    3  A    between atoms: C1_2  and  C2_3 
REMARK    4  A    between atoms: C2_3  and  C3_4 
REMARK    5  A    between atoms: C2_3  and  O5_17 
REMARK       I    between atoms: C3_4  and  N1_6 
REMARK    6  A    between atoms: N1_6  and  C4_7 
REMARK    7  A    between atoms: C4_7  and  C13_8 
REMARK    8  A    between atoms: C4_7  and  C5_10 
REMARK    9  A    between atoms: C13_8  and  C7_9 
ROOT
HETATM    1  C70 BES A 501      36.939  15.780 191.954  1.00  6.08     0.232 C 
ENDROOT
BRANCH   1   2
HETATM    2  C1  BES A 501      36.793  14.410 192.252  1.00  6.71     0.068 C 
BRANCH   2   3
HETATM    3  C2  BES A 501      35.676  14.022 193.170  1.00  9.09     0.205 C 
BRANCH   3   4
HETATM    4  C3  BES A 501      36.253  13.610 194.494  1.00  8.29     0.227 C 
HETATM    5  O3  BES A 501      35.514  13.052 195.274  1.00  7.85    -0.277 OA
HETATM    6  N1  BES A 501      37.667  13.892 194.778  1.00  8.97    -0.246 NA
HETATM    7  H7  BES A 501      37.776  14.951 194.670  1.00  8.27     0.131 HD
BRANCH   6   8
HETATM    8  C4  BES A 501      38.346  13.553 196.029  1.00 10.85     0.169 C 
BRANCH   8   9
HETATM    9  C13 BES A 501      39.565  12.674 195.731  1.00  8.22     0.089 C 
BRANCH   9  10
HETATM   10  C7  BES A 501      39.888  12.693 194.224  1.00 11.21     0.029 A 
HETATM   11  C21 BES A 501      39.938  11.466 193.295  1.00  0.00     0.143 A 
HETATM   12  N22 BES A 501      40.299  11.956 191.880  1.00  0.00    -0.254 N 
HETATM   13  C23 BES A 501      40.473  13.485 191.936  1.00  0.00     0.207 A 
HETATM   14  N24 BES A 501      40.219  13.941 193.385  1.00  0.00    -0.353 N 
HETATM   15  H13 BES A 501      40.264  14.947 193.745  1.00  8.23     0.166 HD
ENDBRANCH   9  10
ENDBRANCH   8   9
BRANCH   8  16
HETATM   16  C5  BES A 501      38.820  14.830 196.642  1.00 10.09     0.192 C 
HETATM   17  O1  BES A 501      38.837  14.943 197.899  1.00  5.58    -0.647 OA
HETATM   18  O4  BES A 501      39.231  15.737 195.855  1.00  5.29    -0.647 OA
ENDBRANCH   8  16
ENDBRANCH   6   8
ENDBRANCH   3   4
BRANCH   3  19
HETATM   19  O5  BES A 501      34.755  15.189 193.365  1.00  8.27    -0.387 OA
HETATM   20  H15 BES A 501      34.345  15.153 194.331  1.00  8.22     0.210 HD
ENDBRANCH   3  19
ENDBRANCH   2   3
ENDBRANCH   1   2
BRANCH   1  21
HETATM   21  N12 BES A 501      37.597  16.487 193.129  1.00  8.22    -0.079 N 
HETATM   22  H14 BES A 501      37.133  16.174 194.040  1.00  8.22     0.274 HD
HETATM   23  H15 BES A 501      37.486  17.545 193.017  1.00  8.22     0.274 HD
HETATM   24  H1  BES A 501      38.638  16.240 193.157  1.00  8.22     0.274 HD
ENDBRANCH   1  21
TORSDOF 9
ENDMDL
