MODEL 1
REMARK VINA RESULT:     0.000      0.000      0.000
REMARK INTER + INTRA:           0.000
REMARK INTER:                   0.000
REMARK INTRA:                   0.000
REMARK UNBOUND:                 0.000
REMARK  Name = BCBL.pdb
REMARK  4 active torsions:
REMARK  status: ('A' for Active; 'I' for Inactive)
REMARK    1  A    between atoms: O1_1  and  C6_6
REMARK    2  A    between atoms: O3_3  and  C17_17
REMARK    3  A    between atoms: O4_4  and  C18_18
REMARK    4  A    between atoms: O5_5  and  C21_21
REMARK                            x       y       z     vdW  Elec       q    Type
REMARK                         _______ _______ _______ _____ _____    ______ ____
ROOT
ATOM      1  O2  UNK B   0      34.938  22.577 190.799  0.00  0.00    +0.000 OA
ATOM      2  C6  UNK B   0      35.666  22.064 193.082  0.00  0.00    +0.000 C 
ATOM      3  C7  UNK B   0      34.971  20.672 193.041  0.00  0.00    +0.000 C 
ATOM      4  C8  UNK B   0      37.158  21.853 192.725  0.00  0.00    +0.000 C 
ATOM      5  C9  UNK B   0      36.149  19.760 193.299  0.00  0.00    +0.000 A 
ATOM      6  C10 UNK B   0      37.365  20.425 193.120  0.00  0.00    +0.000 A 
ATOM      7  C11 UNK B   0      34.982  23.051 192.144  0.00  0.00    +0.000 C 
ATOM      8  C12 UNK B   0      34.272  20.422 191.725  0.00  0.00    +0.000 A 
ATOM      9  C13 UNK B   0      34.311  21.363 190.686  0.00  0.00    +0.000 A 
ATOM     10  C14 UNK B   0      36.128  18.427 193.686  0.00  0.00    +0.000 A 
ATOM     11  C15 UNK B   0      38.576  19.769 193.285  0.00  0.00    +0.000 A 
ATOM     12  C16 UNK B   0      33.556  19.232 191.516  0.00  0.00    +0.000 A 
ATOM     13  C17 UNK B   0      37.342  17.761 193.865  0.00  0.00    +0.000 A 
ATOM     14  C18 UNK B   0      38.559  18.426 193.662  0.00  0.00    +0.000 A 
ATOM     15  C19 UNK B   0      33.718  21.092 189.450  0.00  0.00    +0.000 A 
ATOM     16  C20 UNK B   0      32.944  18.970 190.288  0.00  0.00    +0.000 A 
ATOM     17  C21 UNK B   0      33.033  19.896 189.252  0.00  0.00    +0.000 A 
ENDROOT
BRANCH   2  18
ATOM     18  O1  UNK B   0      35.571  22.608 194.403  0.00  0.00    +0.000 OA
ATOM     19  H28 UNK B   0      34.631  22.646 194.649  0.00  0.00    +0.000 HD
ENDBRANCH   2  18
BRANCH  13  20
ATOM     20  O3  UNK B   0      37.332  16.450 194.241  0.00  0.00    +0.000 OA
ATOM     21  H33 UNK B   0      38.073  16.288 194.849  0.00  0.00    +0.000 HD
ENDBRANCH  13  20
BRANCH  14  22
ATOM     22  O4  UNK B   0      39.740  17.769 193.835  0.00  0.00    +0.000 OA
ATOM     23  H34 UNK B   0      40.281  18.254 194.480  0.00  0.00    +0.000 HD
ENDBRANCH  14  22
BRANCH  17  24
ATOM     24  O5  UNK B   0      32.445  19.636 188.053  0.00  0.00    +0.000 OA
ATOM     25  H35 UNK B   0      31.618  19.147 188.207  0.00  0.00    +0.000 HD
ENDBRANCH  17  24
TORSDOF 4
ENDMDL
MODEL 2
REMARK VINA RESULT:     0.000     10.525     12.202
REMARK INTER + INTRA:           0.000
REMARK INTER:                   0.000
REMARK INTRA:                   0.000
REMARK UNBOUND:                 0.000
REMARK  Name = BCBL.pdb
REMARK  4 active torsions:
REMARK  status: ('A' for Active; 'I' for Inactive)
REMARK    1  A    between atoms: O1_1  and  C6_6
REMARK    2  A    between atoms: O3_3  and  C17_17
REMARK    3  A    between atoms: O4_4  and  C18_18
REMARK    4  A    between atoms: O5_5  and  C21_21
REMARK                            x       y       z     vdW  Elec       q    Type
REMARK                         _______ _______ _______ _____ _____    ______ ____
ROOT
ATOM      1  O2  UNK B   0      45.696  21.963 198.890  0.00  0.00    +0.000 OA
ATOM      2  C6  UNK B   0      43.289  22.394 199.052  0.00  0.00    +0.000 C 
ATOM      3  C7  UNK B   0      42.983  20.879 199.240  0.00  0.00    +0.000 C 
ATOM      4  C8  UNK B   0      43.341  23.038 200.460  0.00  0.00    +0.000 C 
ATOM      5  C9  UNK B   0      42.281  20.895 200.579  0.00  0.00    +0.000 A 
ATOM      6  C10 UNK B   0      42.486  22.103 201.254  0.00  0.00    +0.000 A 
ATOM      7  C11 UNK B   0      44.580  22.604 198.272  0.00  0.00    +0.000 C 
ATOM      8  C12 UNK B   0      44.237  20.035 199.210  0.00  0.00    +0.000 A 
ATOM      9  C13 UNK B   0      45.504  20.616 199.061  0.00  0.00    +0.000 A 
ATOM     10  C14 UNK B   0      41.496  19.900 201.144  0.00  0.00    +0.000 A 
ATOM     11  C15 UNK B   0      41.947  22.325 202.513  0.00  0.00    +0.000 A 
ATOM     12  C16 UNK B   0      44.156  18.638 199.326  0.00  0.00    +0.000 A 
ATOM     13  C17 UNK B   0      40.941  20.118 202.407  0.00  0.00    +0.000 A 
ATOM     14  C18 UNK B   0      41.169  21.321 203.089  0.00  0.00    +0.000 A 
ATOM     15  C19 UNK B   0      46.662  19.833 199.101  0.00  0.00    +0.000 A 
ATOM     16  C20 UNK B   0      45.311  17.853 199.344  0.00  0.00    +0.000 A 
ATOM     17  C21 UNK B   0      46.564  18.451 199.242  0.00  0.00    +0.000 A 
ENDROOT
BRANCH   2  18
ATOM     18  O1  UNK B   0      42.238  23.004 198.294  0.00  0.00    +0.000 OA
ATOM     19  H28 UNK B   0      41.401  22.864 198.768  0.00  0.00    +0.000 HD
ENDBRANCH   2  18
BRANCH  13  20
ATOM     20  O3  UNK B   0      40.172  19.144 202.972  0.00  0.00    +0.000 OA
ATOM     21  H33 UNK B   0      39.641  19.534 203.687  0.00  0.00    +0.000 HD
ENDBRANCH  13  20
BRANCH  14  22
ATOM     22  O4  UNK B   0      40.627  21.525 204.323  0.00  0.00    +0.000 OA
ATOM     23  H34 UNK B   0      41.009  20.884 204.946  0.00  0.00    +0.000 HD
ENDBRANCH  14  22
BRANCH  17  24
ATOM     24  O5  UNK B   0      47.689  17.687 199.270  0.00  0.00    +0.000 OA
ATOM     25  H35 UNK B   0      47.508  16.843 198.821  0.00  0.00    +0.000 HD
ENDBRANCH  17  24
TORSDOF 4
ENDMDL
MODEL 3
REMARK VINA RESULT:     0.000      9.191     12.625
REMARK INTER + INTRA:           0.000
REMARK INTER:                   0.000
REMARK INTRA:                   0.000
REMARK UNBOUND:                 0.000
REMARK  Name = BCBL.pdb
REMARK  4 active torsions:
REMARK  status: ('A' for Active; 'I' for Inactive)
REMARK    1  A    between atoms: O1_1  and  C6_6
REMARK    2  A    between atoms: O3_3  and  C17_17
REMARK    3  A    between atoms: O4_4  and  C18_18
REMARK    4  A    between atoms: O5_5  and  C21_21
REMARK                            x       y       z     vdW  Elec       q    Type
REMARK                         _______ _______ _______ _____ _____    ______ ____
ROOT
ATOM      1  O2  UNK B   0      46.363  15.464 199.336  0.00  0.00    +0.000 OA
ATOM      2  C6  UNK B   0      45.002  16.056 197.386  0.00  0.00    +0.000 C 
ATOM      3  C7  UNK B   0      43.795  16.444 198.288  0.00  0.00    +0.000 C 
ATOM      4  C8  UNK B   0      45.771  17.357 197.049  0.00  0.00    +0.000 C 
ATOM      5  C9  UNK B   0      43.592  17.887 197.885  0.00  0.00    +0.000 A 
ATOM      6  C10 UNK B   0      44.700  18.390 197.195  0.00  0.00    +0.000 A 
ATOM      7  C11 UNK B   0      45.890  15.020 198.065  0.00  0.00    +0.000 C 
ATOM      8  C12 UNK B   0      44.093  16.248 199.757  0.00  0.00    +0.000 A 
ATOM      9  C13 UNK B   0      45.347  15.797 200.194  0.00  0.00    +0.000 A 
ATOM     10  C14 UNK B   0      42.481  18.688 198.108  0.00  0.00    +0.000 A 
ATOM     11  C15 UNK B   0      44.735  19.703 196.751  0.00  0.00    +0.000 A 
ATOM     12  C16 UNK B   0      43.108  16.510 200.723  0.00  0.00    +0.000 A 
ATOM     13  C17 UNK B   0      42.503  20.009 197.655  0.00  0.00    +0.000 A 
ATOM     14  C18 UNK B   0      43.625  20.514 196.984  0.00  0.00    +0.000 A 
ATOM     15  C19 UNK B   0      45.633  15.684 201.557  0.00  0.00    +0.000 A 
ATOM     16  C20 UNK B   0      43.387  16.375 202.085  0.00  0.00    +0.000 A 
ATOM     17  C21 UNK B   0      44.652  15.972 202.502  0.00  0.00    +0.000 A 
ENDROOT
BRANCH   2  18
ATOM     18  O1  UNK B   0      44.524  15.464 196.173  0.00  0.00    +0.000 OA
ATOM     19  H28 UNK B   0      44.352  14.523 196.341  0.00  0.00    +0.000 HD
ENDBRANCH   2  18
BRANCH  13  20
ATOM     20  O3  UNK B   0      41.418  20.805 197.873  0.00  0.00    +0.000 OA
ATOM     21  H33 UNK B   0      40.809  20.351 198.481  0.00  0.00    +0.000 HD
ENDBRANCH  13  20
BRANCH  14  22
ATOM     22  O4  UNK B   0      43.642  21.806 196.548  0.00  0.00    +0.000 OA
ATOM     23  H34 UNK B   0      42.746  22.056 196.265  0.00  0.00    +0.000 HD
ENDBRANCH  14  22
BRANCH  17  24
ATOM     24  O5  UNK B   0      44.926  15.851 203.829  0.00  0.00    +0.000 OA
ATOM     25  H35 UNK B   0      44.565  16.624 204.297  0.00  0.00    +0.000 HD
ENDBRANCH  17  24
TORSDOF 4
ENDMDL
MODEL 4
REMARK VINA RESULT:     0.000     10.760     13.201
REMARK INTER + INTRA:           0.000
REMARK INTER:                   0.000
REMARK INTRA:                   0.000
REMARK UNBOUND:                 0.000
REMARK  Name = BCBL.pdb
REMARK  4 active torsions:
REMARK  status: ('A' for Active; 'I' for Inactive)
REMARK    1  A    between atoms: O1_1  and  C6_6
REMARK    2  A    between atoms: O3_3  and  C17_17
REMARK    3  A    between atoms: O4_4  and  C18_18
REMARK    4  A    between atoms: O5_5  and  C21_21
REMARK                            x       y       z     vdW  Elec       q    Type
REMARK                         _______ _______ _______ _____ _____    ______ ____
ROOT
ATOM      1  O2  UNK B   0      45.555  15.994 200.724  0.00  0.00    +0.000 OA
ATOM      2  C6  UNK B   0      44.490  17.173 198.857  0.00  0.00    +0.000 C 
ATOM      3  C7  UNK B   0      43.400  17.769 199.794  0.00  0.00    +0.000 C 
ATOM      4  C8  UNK B   0      45.601  18.239 198.694  0.00  0.00    +0.000 C 
ATOM      5  C9  UNK B   0      43.620  19.249 199.578  0.00  0.00    +0.000 A 
ATOM      6  C10 UNK B   0      44.850  19.504 198.964  0.00  0.00    +0.000 A 
ATOM      7  C11 UNK B   0      45.029  15.856 199.404  0.00  0.00    +0.000 C 
ATOM      8  C12 UNK B   0      43.572  17.321 201.228  0.00  0.00    +0.000 A 
ATOM      9  C13 UNK B   0      44.635  16.490 201.611  0.00  0.00    +0.000 A 
ATOM     10  C14 UNK B   0      42.763  20.294 199.895  0.00  0.00    +0.000 A 
ATOM     11  C15 UNK B   0      45.264  20.799 198.691  0.00  0.00    +0.000 A 
ATOM     12  C16 UNK B   0      42.659  17.728 202.214  0.00  0.00    +0.000 A 
ATOM     13  C17 UNK B   0      43.167  21.602 199.614  0.00  0.00    +0.000 A 
ATOM     14  C18 UNK B   0      44.411  21.853 199.020  0.00  0.00    +0.000 A 
ATOM     15  C19 UNK B   0      44.822  16.137 202.950  0.00  0.00    +0.000 A 
ATOM     16  C20 UNK B   0      42.834  17.357 203.549  0.00  0.00    +0.000 A 
ATOM     17  C21 UNK B   0      43.921  16.570 203.918  0.00  0.00    +0.000 A 
ENDROOT
BRANCH   2  18
ATOM     18  O1  UNK B   0      43.917  16.889 197.576  0.00  0.00    +0.000 OA
ATOM     19  H28 UNK B   0      44.547  16.344 197.075  0.00  0.00    +0.000 HD
ENDBRANCH   2  18
BRANCH  13  20
ATOM     20  O3  UNK B   0      42.335  22.636 199.926  0.00  0.00    +0.000 OA
ATOM     21  H33 UNK B   0      41.600  22.299 200.468  0.00  0.00    +0.000 HD
ENDBRANCH  13  20
BRANCH  14  22
ATOM     22  O4  UNK B   0      44.801  23.131 198.753  0.00  0.00    +0.000 OA
ATOM     23  H34 UNK B   0      44.021  23.653 198.499  0.00  0.00    +0.000 HD
ENDBRANCH  14  22
BRANCH  17  24
ATOM     24  O5  UNK B   0      44.096  16.218 205.221  0.00  0.00    +0.000 OA
ATOM     25  H35 UNK B   0      44.841  15.594 205.281  0.00  0.00    +0.000 HD
ENDBRANCH  17  24
TORSDOF 4
ENDMDL
MODEL 5
REMARK VINA RESULT:     0.000     11.390     12.940
REMARK INTER + INTRA:           0.000
REMARK INTER:                   0.000
REMARK INTRA:                   0.000
REMARK UNBOUND:                 0.000
REMARK  Name = BCBL.pdb
REMARK  4 active torsions:
REMARK  status: ('A' for Active; 'I' for Inactive)
REMARK    1  A    between atoms: O1_1  and  C6_6
REMARK    2  A    between atoms: O3_3  and  C17_17
REMARK    3  A    between atoms: O4_4  and  C18_18
REMARK    4  A    between atoms: O5_5  and  C21_21
REMARK                            x       y       z     vdW  Elec       q    Type
REMARK                         _______ _______ _______ _____ _____    ______ ____
ROOT
ATOM      1  O2  UNK B   0      47.005  13.772 195.161  0.00  0.00    +0.000 OA
ATOM      2  C6  UNK B   0      45.415  15.538 195.758  0.00  0.00    +0.000 C 
ATOM      3  C7  UNK B   0      44.399  14.500 196.316  0.00  0.00    +0.000 C 
ATOM      4  C8  UNK B   0      46.231  16.085 196.954  0.00  0.00    +0.000 C 
ATOM      5  C9  UNK B   0      44.262  14.978 197.744  0.00  0.00    +0.000 A 
ATOM      6  C10 UNK B   0      45.288  15.862 198.093  0.00  0.00    +0.000 A 
ATOM      7  C11 UNK B   0      46.304  14.920 194.685  0.00  0.00    +0.000 C 
ATOM      8  C12 UNK B   0      44.903  13.081 196.186  0.00  0.00    +0.000 A 
ATOM      9  C13 UNK B   0      46.166  12.802 195.644  0.00  0.00    +0.000 A 
ATOM     10  C14 UNK B   0      43.271  14.656 198.661  0.00  0.00    +0.000 A 
ATOM     11  C15 UNK B   0      45.367  16.407 199.366  0.00  0.00    +0.000 A 
ATOM     12  C16 UNK B   0      44.105  12.003 196.602  0.00  0.00    +0.000 A 
ATOM     13  C17 UNK B   0      43.337  15.208 199.943  0.00  0.00    +0.000 A 
ATOM     14  C18 UNK B   0      44.381  16.074 200.294  0.00  0.00    +0.000 A 
ATOM     15  C19 UNK B   0      46.649  11.491 195.590  0.00  0.00    +0.000 A 
ATOM     16  C20 UNK B   0      44.579  10.691 196.528  0.00  0.00    +0.000 A 
ATOM     17  C21 UNK B   0      45.854  10.436 196.031  0.00  0.00    +0.000 A 
ENDROOT
BRANCH   2  18
ATOM     18  O1  UNK B   0      44.705  16.618 195.140  0.00  0.00    +0.000 OA
ATOM     19  H28 UNK B   0      44.667  17.357 195.770  0.00  0.00    +0.000 HD
ENDBRANCH   2  18
BRANCH  13  20
ATOM     20  O3  UNK B   0      42.371  14.893 200.852  0.00  0.00    +0.000 OA
ATOM     21  H33 UNK B   0      42.118  13.961 200.736  0.00  0.00    +0.000 HD
ENDBRANCH  13  20
BRANCH  14  22
ATOM     22  O4  UNK B   0      44.441  16.606 201.548  0.00  0.00    +0.000 OA
ATOM     23  H34 UNK B   0      44.397  15.886 202.200  0.00  0.00    +0.000 HD
ENDBRANCH  14  22
BRANCH  17  24
ATOM     24  O5  UNK B   0      46.319   9.159 195.968  0.00  0.00    +0.000 OA
ATOM     25  H35 UNK B   0      47.191   9.162 195.536  0.00  0.00    +0.000 HD
ENDBRANCH  17  24
TORSDOF 4
ENDMDL
MODEL 6
REMARK VINA RESULT:     0.000      9.400     11.585
REMARK INTER + INTRA:           0.000
REMARK INTER:                   0.000
REMARK INTRA:                   0.000
REMARK UNBOUND:                 0.000
REMARK  Name = BCBL.pdb
REMARK  4 active torsions:
REMARK  status: ('A' for Active; 'I' for Inactive)
REMARK    1  A    between atoms: O1_1  and  C6_6
REMARK    2  A    between atoms: O3_3  and  C17_17
REMARK    3  A    between atoms: O4_4  and  C18_18
REMARK    4  A    between atoms: O5_5  and  C21_21
REMARK                            x       y       z     vdW  Elec       q    Type
REMARK                         _______ _______ _______ _____ _____    ______ ____
ROOT
ATOM      1  O2  UNK B   0      46.436  13.731 193.494  0.00  0.00    +0.000 OA
ATOM      2  C6  UNK B   0      44.966  15.682 193.296  0.00  0.00    +0.000 C 
ATOM      3  C7  UNK B   0      43.828  14.963 194.075  0.00  0.00    +0.000 C 
ATOM      4  C8  UNK B   0      45.741  16.563 194.307  0.00  0.00    +0.000 C 
ATOM      5  C9  UNK B   0      43.632  15.914 195.233  0.00  0.00    +0.000 A 
ATOM      6  C10 UNK B   0      44.704  16.803 195.357  0.00  0.00    +0.000 A 
ATOM      7  C11 UNK B   0      45.872  14.681 192.590  0.00  0.00    +0.000 C 
ATOM      8  C12 UNK B   0      44.214  13.560 194.485  0.00  0.00    +0.000 A 
ATOM      9  C13 UNK B   0      45.484  13.039 194.196  0.00  0.00    +0.000 A 
ATOM     10  C14 UNK B   0      42.555  15.987 196.106  0.00  0.00    +0.000 A 
ATOM     11  C15 UNK B   0      44.740  17.751 196.369  0.00  0.00    +0.000 A 
ATOM     12  C16 UNK B   0      43.299  12.741 195.166  0.00  0.00    +0.000 A 
ATOM     13  C17 UNK B   0      42.577  16.945 197.122  0.00  0.00    +0.000 A 
ATOM     14  C18 UNK B   0      43.665  17.819 197.255  0.00  0.00    +0.000 A 
ATOM     15  C19 UNK B   0      45.854  11.765 194.639  0.00  0.00    +0.000 A 
ATOM     16  C20 UNK B   0      43.662  11.460 195.589  0.00  0.00    +0.000 A 
ATOM     17  C21 UNK B   0      44.942  10.976 195.334  0.00  0.00    +0.000 A 
ENDROOT
BRANCH   2  18
ATOM     18  O1  UNK B   0      44.398  16.519 192.281  0.00  0.00    +0.000 OA
ATOM     19  H28 UNK B   0      44.380  17.432 192.615  0.00  0.00    +0.000 HD
ENDBRANCH   2  18
BRANCH  13  20
ATOM     20  O3  UNK B   0      41.525  17.021 197.987  0.00  0.00    +0.000 OA
ATOM     21  H33 UNK B   0      40.990  17.802 197.767  0.00  0.00    +0.000 HD
ENDBRANCH  13  20
BRANCH  14  22
ATOM     22  O4  UNK B   0      43.682  18.749 198.252  0.00  0.00    +0.000 OA
ATOM     23  H34 UNK B   0      42.818  18.751 198.697  0.00  0.00    +0.000 HD
ENDBRANCH  14  22
BRANCH  17  24
ATOM     24  O5  UNK B   0      45.297   9.733 195.756  0.00  0.00    +0.000 OA
ATOM     25  H35 UNK B   0      46.269   9.668 195.764  0.00  0.00    +0.000 HD
ENDBRANCH  17  24
TORSDOF 4
ENDMDL
MODEL 7
REMARK VINA RESULT:     0.000     10.652     12.424
REMARK INTER + INTRA:           0.000
REMARK INTER:                   0.000
REMARK INTRA:                   0.000
REMARK UNBOUND:                 0.000
REMARK  Name = BCBL.pdb
REMARK  4 active torsions:
REMARK  status: ('A' for Active; 'I' for Inactive)
REMARK    1  A    between atoms: O1_1  and  C6_6
REMARK    2  A    between atoms: O3_3  and  C17_17
REMARK    3  A    between atoms: O4_4  and  C18_18
REMARK    4  A    between atoms: O5_5  and  C21_21
REMARK                            x       y       z     vdW  Elec       q    Type
REMARK                         _______ _______ _______ _____ _____    ______ ____
ROOT
ATOM      1  O2  UNK B   0      45.414  12.627 193.653  0.00  0.00    +0.000 OA
ATOM      2  C6  UNK B   0      43.818  14.099 194.789  0.00  0.00    +0.000 C 
ATOM      3  C7  UNK B   0      42.961  12.888 195.257  0.00  0.00    +0.000 C 
ATOM      4  C8  UNK B   0      44.763  14.482 195.954  0.00  0.00    +0.000 C 
ATOM      5  C9  UNK B   0      43.002  13.074 196.757  0.00  0.00    +0.000 A 
ATOM      6  C10 UNK B   0      44.010  13.965 197.138  0.00  0.00    +0.000 A 
ATOM      7  C11 UNK B   0      44.581  13.776 193.509  0.00  0.00    +0.000 C 
ATOM      8  C12 UNK B   0      43.529  11.570 194.783  0.00  0.00    +0.000 A 
ATOM      9  C13 UNK B   0      44.716  11.511 194.038  0.00  0.00    +0.000 A 
ATOM     10  C14 UNK B   0      42.176  12.497 197.711  0.00  0.00    +0.000 A 
ATOM     11  C15 UNK B   0      44.238  14.266 198.473  0.00  0.00    +0.000 A 
ATOM     12  C16 UNK B   0      42.870  10.365 195.076  0.00  0.00    +0.000 A 
ATOM     13  C17 UNK B   0      42.391  12.803 199.058  0.00  0.00    +0.000 A 
ATOM     14  C18 UNK B   0      43.418  13.678 199.436  0.00  0.00    +0.000 A 
ATOM     15  C19 UNK B   0      45.268  10.283 193.662  0.00  0.00    +0.000 A 
ATOM     16  C20 UNK B   0      43.410   9.138 194.682  0.00  0.00    +0.000 A 
ATOM     17  C21 UNK B   0      44.613   9.097 193.984  0.00  0.00    +0.000 A 
ENDROOT
BRANCH   2  18
ATOM     18  O1  UNK B   0      42.960  15.208 194.495  0.00  0.00    +0.000 OA
ATOM     19  H28 UNK B   0      42.109  14.858 194.181  0.00  0.00    +0.000 HD
ENDBRANCH   2  18
BRANCH  13  20
ATOM     20  O3  UNK B   0      41.588  12.237 200.004  0.00  0.00    +0.000 OA
ATOM     21  H33 UNK B   0      41.042  12.930 200.411  0.00  0.00    +0.000 HD
ENDBRANCH  13  20
BRANCH  14  22
ATOM     22  O4  UNK B   0      43.625  13.968 200.752  0.00  0.00    +0.000 OA
ATOM     23  H34 UNK B   0      44.404  13.478 201.066  0.00  0.00    +0.000 HD
ENDBRANCH  14  22
BRANCH  17  24
ATOM     24  O5  UNK B   0      45.143   7.901 193.609  0.00  0.00    +0.000 OA
ATOM     25  H35 UNK B   0      45.108   7.290 194.365  0.00  0.00    +0.000 HD
ENDBRANCH  17  24
TORSDOF 4
ENDMDL
MODEL 8
REMARK VINA RESULT:     0.000      8.989     10.506
REMARK INTER + INTRA:           0.000
REMARK INTER:                   0.000
REMARK INTRA:                   0.000
REMARK UNBOUND:                 0.000
REMARK  Name = BCBL.pdb
REMARK  4 active torsions:
REMARK  status: ('A' for Active; 'I' for Inactive)
REMARK    1  A    between atoms: O1_1  and  C6_6
REMARK    2  A    between atoms: O3_3  and  C17_17
REMARK    3  A    between atoms: O4_4  and  C18_18
REMARK    4  A    between atoms: O5_5  and  C21_21
REMARK                            x       y       z     vdW  Elec       q    Type
REMARK                         _______ _______ _______ _____ _____    ______ ____
ROOT
ATOM      1  O2  UNK B   0      44.077  14.740 192.706  0.00  0.00    +0.000 OA
ATOM      2  C6  UNK B   0      43.264  16.417 194.297  0.00  0.00    +0.000 C 
ATOM      3  C7  UNK B   0      42.458  15.345 195.087  0.00  0.00    +0.000 C 
ATOM      4  C8  UNK B   0      44.618  16.611 195.023  0.00  0.00    +0.000 C 
ATOM      5  C9  UNK B   0      43.074  15.482 196.461  0.00  0.00    +0.000 A 
ATOM      6  C10 UNK B   0      44.279  16.189 196.417  0.00  0.00    +0.000 A 
ATOM      7  C11 UNK B   0      43.443  16.011 192.839  0.00  0.00    +0.000 C 
ATOM      8  C12 UNK B   0      42.595  13.967 194.482  0.00  0.00    +0.000 A 
ATOM      9  C13 UNK B   0      43.401  13.740 193.357  0.00  0.00    +0.000 A 
ATOM     10  C14 UNK B   0      42.575  15.018 197.670  0.00  0.00    +0.000 A 
ATOM     11  C15 UNK B   0      45.025  16.412 197.565  0.00  0.00    +0.000 A 
ATOM     12  C16 UNK B   0      41.907  12.875 195.036  0.00  0.00    +0.000 A 
ATOM     13  C17 UNK B   0      43.314  15.248 198.833  0.00  0.00    +0.000 A 
ATOM     14  C18 UNK B   0      44.533  15.936 198.780  0.00  0.00    +0.000 A 
ATOM     15  C19 UNK B   0      43.574  12.450 192.846  0.00  0.00    +0.000 A 
ATOM     16  C20 UNK B   0      42.063  11.590 194.513  0.00  0.00    +0.000 A 
ATOM     17  C21 UNK B   0      42.904  11.376 193.424  0.00  0.00    +0.000 A 
ENDROOT
BRANCH   2  18
ATOM     18  O1  UNK B   0      42.546  17.656 194.301  0.00  0.00    +0.000 OA
ATOM     19  H28 UNK B   0      42.871  18.198 193.563  0.00  0.00    +0.000 HD
ENDBRANCH   2  18
BRANCH  13  20
ATOM     20  O3  UNK B   0      42.835  14.791 200.026  0.00  0.00    +0.000 OA
ATOM     21  H33 UNK B   0      43.445  15.057 200.735  0.00  0.00    +0.000 HD
ENDBRANCH  13  20
BRANCH  14  22
ATOM     22  O4  UNK B   0      45.251  16.153 199.918  0.00  0.00    +0.000 OA
ATOM     23  H34 UNK B   0      45.683  15.323 200.183  0.00  0.00    +0.000 HD
ENDBRANCH  14  22
BRANCH  17  24
ATOM     24  O5  UNK B   0      43.062  10.121 192.921  0.00  0.00    +0.000 OA
ATOM     25  H35 UNK B   0      42.360   9.952 192.269  0.00  0.00    +0.000 HD
ENDBRANCH  17  24
TORSDOF 4
ENDMDL
MODEL 9
REMARK VINA RESULT:     0.000      4.523      7.790
REMARK INTER + INTRA:           0.000
REMARK INTER:                   0.000
REMARK INTRA:                   0.000
REMARK UNBOUND:                 0.000
REMARK  Name = BCBL.pdb
REMARK  4 active torsions:
REMARK  status: ('A' for Active; 'I' for Inactive)
REMARK    1  A    between atoms: O1_1  and  C6_6
REMARK    2  A    between atoms: O3_3  and  C17_17
REMARK    3  A    between atoms: O4_4  and  C18_18
REMARK    4  A    between atoms: O5_5  and  C21_21
REMARK                            x       y       z     vdW  Elec       q    Type
REMARK                         _______ _______ _______ _____ _____    ______ ____
ROOT
ATOM      1  O2  UNK B   0      36.963  15.420 196.256  0.00  0.00    +0.000 OA
ATOM      2  C6  UNK B   0      35.640  17.353 195.534  0.00  0.00    +0.000 C 
ATOM      3  C7  UNK B   0      35.422  17.812 197.005  0.00  0.00    +0.000 C 
ATOM      4  C8  UNK B   0      36.836  18.155 194.965  0.00  0.00    +0.000 C 
ATOM      5  C9  UNK B   0      36.025  19.198 196.961  0.00  0.00    +0.000 A 
ATOM      6  C10 UNK B   0      36.812  19.382 195.820  0.00  0.00    +0.000 A 
ATOM      7  C11 UNK B   0      35.863  15.848 195.453  0.00  0.00    +0.000 C 
ATOM      8  C12 UNK B   0      36.083  16.883 197.998  0.00  0.00    +0.000 A 
ATOM      9  C13 UNK B   0      36.823  15.769 197.574  0.00  0.00    +0.000 A 
ATOM     10  C14 UNK B   0      35.861  20.230 197.875  0.00  0.00    +0.000 A 
ATOM     11  C15 UNK B   0      37.478  20.577 195.589  0.00  0.00    +0.000 A 
ATOM     12  C16 UNK B   0      35.964  17.115 199.377  0.00  0.00    +0.000 A 
ATOM     13  C17 UNK B   0      36.518  21.441 197.645  0.00  0.00    +0.000 A 
ATOM     14  C18 UNK B   0      37.325  21.612 196.512  0.00  0.00    +0.000 A 
ATOM     15  C19 UNK B   0      37.485  14.955 198.498  0.00  0.00    +0.000 A 
ATOM     16  C20 UNK B   0      36.608  16.289 200.301  0.00  0.00    +0.000 A 
ATOM     17  C21 UNK B   0      37.376  15.215 199.861  0.00  0.00    +0.000 A 
ENDROOT
BRANCH   2  18
ATOM     18  O1  UNK B   0      34.468  17.643 194.764  0.00  0.00    +0.000 OA
ATOM     19  H28 UNK B   0      34.715  18.264 194.057  0.00  0.00    +0.000 HD
ENDBRANCH   2  18
BRANCH  13  20
ATOM     20  O3  UNK B   0      36.367  22.459 198.540  0.00  0.00    +0.000 OA
ATOM     21  H33 UNK B   0      35.419  22.589 198.715  0.00  0.00    +0.000 HD
ENDBRANCH  13  20
BRANCH  14  22
ATOM     22  O4  UNK B   0      37.967  22.795 196.297  0.00  0.00    +0.000 OA
ATOM     23  H34 UNK B   0      37.599  23.468 196.894  0.00  0.00    +0.000 HD
ENDBRANCH  14  22
BRANCH  17  24
ATOM     24  O5  UNK B   0      38.011  14.416 200.761  0.00  0.00    +0.000 OA
ATOM     25  H35 UNK B   0      37.375  14.147 201.447  0.00  0.00    +0.000 HD
ENDBRANCH  17  24
TORSDOF 4
ENDMDL
