MODEL 1
REMARK VINA RESULT:    -2.067      0.000      0.000
REMARK INTER + INTRA:          -6.897
REMARK INTER:                  -3.940
REMARK INTRA:                  -2.957
REMARK UNBOUND:                -2.957
REMARK  10 active torsions:
REMARK  status: ('A' for Active; 'I' for Inactive)
REMARK    1  A    between atoms: N2_1  and  C1_2 
REMARK    2  A    between atoms: C1_2  and  C6_3 
REMARK    3  A    between atoms: C1_2  and  C2_10 
REMARK    4  A    between atoms: C6_3  and  C7_4 
REMARK    5  A    between atoms: C2_10  and  O2_11 
REMARK    6  A    between atoms: C2_10  and  C3_12 
REMARK       I    between atoms: C3_12  and  N1_14 
REMARK    7  A    between atoms: N1_14  and  C4_15 
REMARK    8  A    between atoms: C4_15  and  C13_16 
REMARK    9  A    between atoms: C4_15  and  C5_20 
REMARK   10  A    between atoms: C13_16  and  C14_17 
ROOT
HETATM    1  N2  BES   501      37.305  17.710 196.339  1.00  0.00    -0.423 N 
HETATM    2  H1  BES   501      36.636  16.911 196.583  1.00  0.00     0.150 HD
HETATM    3  H2  BES   501      37.079  18.366 195.524  1.00  0.00     0.150 HD
ENDROOT
BRANCH   1   4
HETATM    4  C1  BES   501      38.505  17.902 197.105  1.00  0.00     0.116 C 
BRANCH   4   5
HETATM    5  C6  BES   501      39.447  19.024 196.656  1.00  0.00     0.066 C 
BRANCH   5   6
HETATM    6  C7  BES   501      39.242  20.348 197.411  1.00  0.00    -0.056 A 
HETATM    7  C8  BES   501      40.317  21.232 197.653  1.00  0.00     0.007 A 
HETATM    8  C9  BES   501      40.097  22.443 198.346  1.00  0.00     0.001 A 
HETATM    9  C10 BES   501      38.818  22.776 198.783  1.00  0.00     0.000 A 
HETATM   10  C11 BES   501      37.747  21.898 198.536  1.00  0.00     0.001 A 
HETATM   11  C12 BES   501      37.965  20.686 197.843  1.00  0.00     0.007 A 
ENDBRANCH   5   6
ENDBRANCH   4   5
BRANCH   4  12
HETATM   12  C2  BES   501      39.280  16.625 196.994  1.00  0.00     0.232 C 
BRANCH  12  13
HETATM   13  O2  BES   501      38.395  15.595 196.826  1.00  0.00    -0.384 OA
HETATM   14  H12 BES   501      38.829  14.701 197.162  1.00  0.00     0.210 HD
ENDBRANCH  12  13
BRANCH  12  15
HETATM   15  C3  BES   501      40.070  16.421 198.254  1.00  0.00     0.249 C 
HETATM   16  O3  BES   501      41.206  16.017 198.140  1.00  0.00    -0.271 OA
HETATM   17  N1  BES   501      39.442  16.714 199.549  1.00  0.00    -0.344 N 
HETATM   18  H23 BES   501      38.435  17.079 199.543  1.00  0.00     0.163 HD
BRANCH  17  19
HETATM   19  C4  BES   501      40.096  16.548 200.846  1.00  0.00     0.185 C 
BRANCH  19  20
HETATM   20  C13 BES   501      39.931  17.826 201.674  1.00  0.00     0.040 C 
BRANCH  20  21
HETATM   21  C14 BES   501      40.056  19.052 200.791  1.00  0.00    -0.020 C 
HETATM   22  C15 BES   501      39.262  20.202 201.412  1.00  0.00     0.009 C 
HETATM   23  C16 BES   501      41.489  19.448 200.619  1.00  0.00     0.009 C 
ENDBRANCH  20  21
ENDBRANCH  19  20
BRANCH  19  24
HETATM   24  C5  BES   501      39.405  15.430 201.557  1.00  0.00     0.196 C 
HETATM   25  O1  BES   501      38.558  15.696 202.453  1.00  0.00    -0.646 OA
HETATM   26  O4  BES   501      39.675  14.246 201.181  1.00  0.00    -0.646 OA
ENDBRANCH  19  24
ENDBRANCH  17  19
ENDBRANCH  12  15
ENDBRANCH   4  12
ENDBRANCH   1   4
TORSDOF 10
REMARK  7 active torsions:
REMARK  status: ('A' for Active; 'I' for Inactive)
REMARK    1  A    between atoms: N2_1  and  C1_2 
REMARK    2  A    between atoms: C1_2  and  C2_3 
REMARK    3  A    between atoms: C2_3  and  C3_4 
REMARK       I    between atoms: C3_4  and  N1_6 
REMARK    4  A    between atoms: N1_6  and  C4_7 
REMARK    5  A    between atoms: C4_7  and  C13_8 
REMARK    6  A    between atoms: C4_7  and  C5_10 
REMARK    7  A    between atoms: C13_8  and  C7_9 
ROOT
HETATM    1  N2  BES   501      36.708  13.162 201.667  1.00  0.00    -0.079 N 
HETATM    2  H1  BES   501      36.824  12.150 201.339  1.00  0.00     0.274 HD
HETATM    3  H2  BES   501      37.651  13.664 201.614  1.00  0.00     0.274 HD
HETATM    4  H1  BES   501      36.003  13.661 201.035  1.00  0.00     0.274 HD
ENDROOT
BRANCH   1   5
HETATM    5  C1  BES   501      36.218  13.176 203.059  1.00  0.00     0.238 C 
BRANCH   5   6
HETATM    6  C2  BES   501      35.337  14.348 203.363  1.00  0.00     0.123 C 
BRANCH   6   7
HETATM    7  C3  BES   501      34.916  14.990 202.072  1.00  0.00     0.199 C 
HETATM    8  O3  BES   501      33.863  14.635 201.591  1.00  0.00    -0.280 OA
HETATM    9  N1  BES   501      35.782  16.008 201.463  1.00  0.00    -0.248 NA
HETATM   10  H7  BES   501      36.729  15.530 201.316  1.00  0.00     0.131 HD
BRANCH   9  11
HETATM   11  C4  BES   501      35.494  16.700 200.207  1.00  0.00     0.169 C 
BRANCH  11  12
HETATM   12  C13 BES   501      36.265  18.023 200.159  1.00  0.00     0.089 C 
BRANCH  12  13
HETATM   13  C7  BES   501      35.326  19.181 199.771  1.00  0.00     0.031 A 
HETATM   14  C21 BES   501      34.527  19.298 198.459  1.00  0.00     0.143 A 
HETATM   15  N22 BES   501      33.730  20.614 198.504  1.00  0.00    -0.254 N 
HETATM   16  C23 BES   501      34.035  21.311 199.843  1.00  0.00     0.209 A 
HETATM   17  N24 BES   501      35.021  20.424 200.626  1.00  0.00    -0.348 N 
HETATM   18  C1  BES   501      35.594  20.725 202.002  1.00  0.00     0.157 C 
ENDBRANCH  12  13
ENDBRANCH  11  12
BRANCH  11  19
HETATM   19  C5  BES   501      35.976  15.828 199.094  1.00  0.00     0.192 C 
HETATM   20  O1  BES   501      35.458  15.942 197.949  1.00  0.00    -0.647 OA
HETATM   21  O4  BES   501      36.931  15.030 199.351  1.00  0.00    -0.647 OA
ENDBRANCH  11  19
ENDBRANCH   9  11
ENDBRANCH   6   7
ENDBRANCH   5   6
ENDBRANCH   1   5
TORSDOF 7
ENDMDL
MODEL 2
REMARK VINA RESULT:    -2.026      3.363      7.419
REMARK INTER + INTRA:          -6.819
REMARK INTER:                  -3.694
REMARK INTRA:                  -3.125
REMARK UNBOUND:                -2.957
REMARK  10 active torsions:
REMARK  status: ('A' for Active; 'I' for Inactive)
REMARK    1  A    between atoms: N2_1  and  C1_2 
REMARK    2  A    between atoms: C1_2  and  C6_3 
REMARK    3  A    between atoms: C1_2  and  C2_10 
REMARK    4  A    between atoms: C6_3  and  C7_4 
REMARK    5  A    between atoms: C2_10  and  O2_11 
REMARK    6  A    between atoms: C2_10  and  C3_12 
REMARK       I    between atoms: C3_12  and  N1_14 
REMARK    7  A    between atoms: N1_14  and  C4_15 
REMARK    8  A    between atoms: C4_15  and  C13_16 
REMARK    9  A    between atoms: C4_15  and  C5_20 
REMARK   10  A    between atoms: C13_16  and  C14_17 
ROOT
HETATM    1  N2  BES   501      36.565  16.383 194.839  1.00  0.00    -0.423 N 
HETATM    2  H1  BES   501      36.628  15.391 194.443  1.00  0.00     0.150 HD
HETATM    3  H2  BES   501      36.579  17.225 194.177  1.00  0.00     0.150 HD
ENDROOT
BRANCH   1   4
HETATM    4  C1  BES   501      36.461  16.586 196.257  1.00  0.00     0.116 C 
BRANCH   4   5
HETATM    5  C6  BES   501      35.109  16.279 196.908  1.00  0.00     0.066 C 
BRANCH   5   6
HETATM    6  C7  BES   501      35.144  15.092 197.885  1.00  0.00    -0.056 A 
HETATM    7  C8  BES   501      34.230  14.991 198.957  1.00  0.00     0.007 A 
HETATM    8  C9  BES   501      34.284  13.886 199.835  1.00  0.00     0.001 A 
HETATM    9  C10 BES   501      35.231  12.884 199.639  1.00  0.00     0.000 A 
HETATM   10  C11 BES   501      36.136  12.981 198.566  1.00  0.00     0.001 A 
HETATM   11  C12 BES   501      36.083  14.086 197.688  1.00  0.00     0.007 A 
ENDBRANCH   5   6
ENDBRANCH   4   5
BRANCH   4  12
HETATM   12  C2  BES   501      36.726  18.042 196.492  1.00  0.00     0.232 C 
BRANCH  12  13
HETATM   13  O2  BES   501      37.648  18.467 195.573  1.00  0.00    -0.384 OA
HETATM   14  H12 BES   501      38.562  18.652 196.053  1.00  0.00     0.210 HD
ENDBRANCH  12  13
BRANCH  12  15
HETATM   15  C3  BES   501      37.266  18.224 197.880  1.00  0.00     0.249 C 
HETATM   16  O3  BES   501      36.865  19.175 198.513  1.00  0.00    -0.271 OA
HETATM   17  N1  BES   501      38.240  17.257 198.403  1.00  0.00    -0.344 N 
HETATM   18  H23 BES   501      38.522  16.442 197.769  1.00  0.00     0.163 HD
BRANCH  17  19
HETATM   19  C4  BES   501      38.849  17.326 199.731  1.00  0.00     0.185 C 
BRANCH  19  20
HETATM   20  C13 BES   501      38.840  15.936 200.375  1.00  0.00     0.040 C 
BRANCH  20  21
HETATM   21  C14 BES   501      37.457  15.600 200.895  1.00  0.00    -0.020 C 
HETATM   22  C15 BES   501      37.571  14.502 201.953  1.00  0.00     0.009 C 
HETATM   23  C16 BES   501      36.790  16.807 201.475  1.00  0.00     0.009 C 
ENDBRANCH  20  21
ENDBRANCH  19  20
BRANCH  19  24
HETATM   24  C5  BES   501      40.267  17.757 199.552  1.00  0.00     0.196 C 
HETATM   25  O1  BES   501      40.520  18.968 199.306  1.00  0.00    -0.646 OA
HETATM   26  O4  BES   501      41.168  16.874 199.708  1.00  0.00    -0.646 OA
ENDBRANCH  19  24
ENDBRANCH  17  19
ENDBRANCH  12  15
ENDBRANCH   4  12
ENDBRANCH   1   4
TORSDOF 10
REMARK  7 active torsions:
REMARK  status: ('A' for Active; 'I' for Inactive)
REMARK    1  A    between atoms: N2_1  and  C1_2 
REMARK    2  A    between atoms: C1_2  and  C2_3 
REMARK    3  A    between atoms: C2_3  and  C3_4 
REMARK       I    between atoms: C3_4  and  N1_6 
REMARK    4  A    between atoms: N1_6  and  C4_7 
REMARK    5  A    between atoms: C4_7  and  C13_8 
REMARK    6  A    between atoms: C4_7  and  C5_10 
REMARK    7  A    between atoms: C13_8  and  C7_9 
ROOT
HETATM    1  N2  BES   501      42.998  18.298 197.455  1.00  0.00    -0.079 N 
HETATM    2  H1  BES   501      42.373  18.600 198.270  1.00  0.00     0.274 HD
HETATM    3  H2  BES   501      42.457  17.625 196.823  1.00  0.00     0.274 HD
HETATM    4  H1  BES   501      43.288  19.160 196.892  1.00  0.00     0.274 HD
ENDROOT
BRANCH   1   5
HETATM    5  C1  BES   501      44.201  17.624 197.979  1.00  0.00     0.238 C 
BRANCH   5   6
HETATM    6  C2  BES   501      44.109  16.130 197.931  1.00  0.00     0.123 C 
BRANCH   6   7
HETATM    7  C3  BES   501      43.191  15.733 196.812  1.00  0.00     0.199 C 
HETATM    8  O3  BES   501      43.675  15.620 195.708  1.00  0.00    -0.280 OA
HETATM    9  N1  BES   501      41.770  15.498 197.101  1.00  0.00    -0.248 NA
HETATM   10  H7  BES   501      41.410  16.408 197.534  1.00  0.00     0.131 HD
BRANCH   9  11
HETATM   11  C4  BES   501      40.771  15.118 196.102  1.00  0.00     0.169 C 
BRANCH  11  12
HETATM   12  C13 BES   501      39.636  14.342 196.777  1.00  0.00     0.089 C 
BRANCH  12  13
HETATM   13  C7  BES   501      39.279  13.087 195.959  1.00  0.00     0.031 A 
HETATM   14  C21 BES   501      38.229  13.007 194.835  1.00  0.00     0.143 A 
HETATM   15  N22 BES   501      38.209  11.563 194.304  1.00  0.00    -0.254 N 
HETATM   16  C23 BES   501      39.248  10.748 195.098  1.00  0.00     0.209 A 
HETATM   17  N24 BES   501      39.908  11.691 196.121  1.00  0.00    -0.348 N 
HETATM   18  C1  BES   501      40.992  11.310 197.117  1.00  0.00     0.157 C 
ENDBRANCH  12  13
ENDBRANCH  11  12
BRANCH  11  19
HETATM   19  C5  BES   501      40.210  16.377 195.527  1.00  0.00     0.192 C 
HETATM   20  O1  BES   501      39.572  16.331 194.440  1.00  0.00    -0.647 OA
HETATM   21  O4  BES   501      40.370  17.445 196.198  1.00  0.00    -0.647 OA
ENDBRANCH  11  19
ENDBRANCH   9  11
ENDBRANCH   6   7
ENDBRANCH   5   6
ENDBRANCH   1   5
TORSDOF 7
ENDMDL
MODEL 3
REMARK VINA RESULT:    -2.000      4.887      8.490
REMARK INTER + INTRA:          -6.769
REMARK INTER:                  -3.649
REMARK INTRA:                  -3.119
REMARK UNBOUND:                -2.957
REMARK  10 active torsions:
REMARK  status: ('A' for Active; 'I' for Inactive)
REMARK    1  A    between atoms: N2_1  and  C1_2 
REMARK    2  A    between atoms: C1_2  and  C6_3 
REMARK    3  A    between atoms: C1_2  and  C2_10 
REMARK    4  A    between atoms: C6_3  and  C7_4 
REMARK    5  A    between atoms: C2_10  and  O2_11 
REMARK    6  A    between atoms: C2_10  and  C3_12 
REMARK       I    between atoms: C3_12  and  N1_14 
REMARK    7  A    between atoms: N1_14  and  C4_15 
REMARK    8  A    between atoms: C4_15  and  C13_16 
REMARK    9  A    between atoms: C4_15  and  C5_20 
REMARK   10  A    between atoms: C13_16  and  C14_17 
ROOT
HETATM    1  N2  BES   501      34.457   9.546 199.624  1.00  0.00    -0.423 N 
HETATM    2  H1  BES   501      35.205   9.086 200.236  1.00  0.00     0.150 HD
HETATM    3  H2  BES   501      33.996   8.989 198.835  1.00  0.00     0.150 HD
ENDROOT
BRANCH   1   4
HETATM    4  C1  BES   501      34.074  10.910 199.860  1.00  0.00     0.116 C 
BRANCH   4   5
HETATM    5  C6  BES   501      34.281  11.457 201.275  1.00  0.00     0.066 C 
BRANCH   5   6
HETATM    6  C7  BES   501      35.171  12.711 201.333  1.00  0.00    -0.056 A 
HETATM    7  C8  BES   501      35.095  13.619 202.413  1.00  0.00     0.007 A 
HETATM    8  C9  BES   501      35.929  14.759 202.440  1.00  0.00     0.001 A 
HETATM    9  C10 BES   501      36.837  14.985 201.410  1.00  0.00     0.000 A 
HETATM   10  C11 BES   501      36.916  14.077 200.339  1.00  0.00     0.001 A 
HETATM   11  C12 BES   501      36.084  12.936 200.310  1.00  0.00     0.007 A 
ENDBRANCH   5   6
ENDBRANCH   4   5
BRANCH   4  12
HETATM   12  C2  BES   501      32.603  10.984 199.586  1.00  0.00     0.232 C 
BRANCH  12  13
HETATM   13  O2  BES   501      32.347  10.316 198.418  1.00  0.00    -0.384 OA
HETATM   14  H12 BES   501      33.250   9.995 197.993  1.00  0.00     0.210 HD
ENDBRANCH  12  13
BRANCH  12  15
HETATM   15  C3  BES   501      32.201  12.424 199.451  1.00  0.00     0.249 C 
HETATM   16  O3  BES   501      31.268  12.807 200.122  1.00  0.00    -0.271 OA
HETATM   17  N1  BES   501      32.945  13.292 198.529  1.00  0.00    -0.344 N 
HETATM   18  H23 BES   501      33.763  12.860 197.989  1.00  0.00     0.163 HD
BRANCH  17  19
HETATM   19  C4  BES   501      32.649  14.705 198.297  1.00  0.00     0.185 C 
BRANCH  19  20
HETATM   20  C13 BES   501      33.817  15.563 198.794  1.00  0.00     0.040 C 
BRANCH  20  21
HETATM   21  C14 BES   501      33.324  16.633 199.747  1.00  0.00    -0.020 C 
HETATM   22  C15 BES   501      32.673  15.964 200.959  1.00  0.00     0.009 C 
HETATM   23  C16 BES   501      34.443  17.522 200.188  1.00  0.00     0.009 C 
ENDBRANCH  20  21
ENDBRANCH  19  20
BRANCH  19  24
HETATM   24  C5  BES   501      32.511  14.899 196.823  1.00  0.00     0.196 C 
HETATM   25  O1  BES   501      31.405  15.279 196.350  1.00  0.00    -0.646 OA
HETATM   26  O4  BES   501      33.548  14.714 196.112  1.00  0.00    -0.646 OA
ENDBRANCH  19  24
ENDBRANCH  17  19
ENDBRANCH  12  15
ENDBRANCH   4  12
ENDBRANCH   1   4
TORSDOF 10
REMARK  7 active torsions:
REMARK  status: ('A' for Active; 'I' for Inactive)
REMARK    1  A    between atoms: N2_1  and  C1_2 
REMARK    2  A    between atoms: C1_2  and  C2_3 
REMARK    3  A    between atoms: C2_3  and  C3_4 
REMARK       I    between atoms: C3_4  and  N1_6 
REMARK    4  A    between atoms: N1_6  and  C4_7 
REMARK    5  A    between atoms: C4_7  and  C13_8 
REMARK    6  A    between atoms: C4_7  and  C5_10 
REMARK    7  A    between atoms: C13_8  and  C7_9 
ROOT
HETATM    1  N2  BES   501      31.308   9.442 195.680  1.00  0.00    -0.079 N 
HETATM    2  H1  BES   501      31.942   9.331 194.826  1.00  0.00     0.274 HD
HETATM    3  H2  BES   501      30.709   8.562 195.796  1.00  0.00     0.274 HD
HETATM    4  H1  BES   501      31.910   9.580 196.554  1.00  0.00     0.274 HD
ENDROOT
BRANCH   1   5
HETATM    5  C1  BES   501      30.431  10.614 195.495  1.00  0.00     0.238 C 
BRANCH   5   6
HETATM    6  C2  BES   501      31.186  11.881 195.233  1.00  0.00     0.123 C 
BRANCH   6   7
HETATM    7  C3  BES   501      32.618  11.542 194.934  1.00  0.00     0.199 C 
HETATM    8  O3  BES   501      32.904  11.301 193.783  1.00  0.00    -0.280 OA
HETATM    9  N1  BES   501      33.594  11.524 196.032  1.00  0.00    -0.248 NA
HETATM   10  H7  BES   501      33.215  10.819 196.742  1.00  0.00     0.131 HD
BRANCH   9  11
HETATM   11  C4  BES   501      35.012  11.201 195.877  1.00  0.00     0.169 C 
BRANCH  11  12
HETATM   12  C13 BES   501      35.860  12.228 196.635  1.00  0.00     0.089 C 
BRANCH  12  13
HETATM   13  C7  BES   501      36.893  12.874 195.694  1.00  0.00     0.031 A 
HETATM   14  C21 BES   501      37.591  12.186 194.506  1.00  0.00     0.143 A 
HETATM   15  N22 BES   501      38.540  13.208 193.854  1.00  0.00    -0.254 N 
HETATM   16  C23 BES   501      38.430  14.529 194.639  1.00  0.00     0.209 A 
HETATM   17  N24 BES   501      37.412  14.322 195.776  1.00  0.00    -0.348 N 
HETATM   18  C1  BES   501      36.992  15.365 196.800  1.00  0.00     0.157 C 
ENDBRANCH  12  13
ENDBRANCH  11  12
BRANCH  11  19
HETATM   19  C5  BES   501      35.235   9.857 196.488  1.00  0.00     0.192 C 
HETATM   20  O1  BES   501      36.359   9.584 196.992  1.00  0.00    -0.647 OA
HETATM   21  O4  BES   501      34.248   9.056 196.509  1.00  0.00    -0.647 OA
ENDBRANCH  11  19
ENDBRANCH   9  11
ENDBRANCH   6   7
ENDBRANCH   5   6
ENDBRANCH   1   5
TORSDOF 7
ENDMDL
MODEL 4
REMARK VINA RESULT:    -2.000      3.530      6.662
REMARK INTER + INTRA:          -6.768
REMARK INTER:                  -3.568
REMARK INTRA:                  -3.200
REMARK UNBOUND:                -2.957
REMARK  10 active torsions:
REMARK  status: ('A' for Active; 'I' for Inactive)
REMARK    1  A    between atoms: N2_1  and  C1_2 
REMARK    2  A    between atoms: C1_2  and  C6_3 
REMARK    3  A    between atoms: C1_2  and  C2_10 
REMARK    4  A    between atoms: C6_3  and  C7_4 
REMARK    5  A    between atoms: C2_10  and  O2_11 
REMARK    6  A    between atoms: C2_10  and  C3_12 
REMARK       I    between atoms: C3_12  and  N1_14 
REMARK    7  A    between atoms: N1_14  and  C4_15 
REMARK    8  A    between atoms: C4_15  and  C13_16 
REMARK    9  A    between atoms: C4_15  and  C5_20 
REMARK   10  A    between atoms: C13_16  and  C14_17 
ROOT
HETATM    1  N2  BES   501      38.774  18.480 199.044  1.00  0.00    -0.423 N 
HETATM    2  H1  BES   501      37.895  18.842 199.536  1.00  0.00     0.150 HD
HETATM    3  H2  BES   501      39.715  18.493 199.553  1.00  0.00     0.150 HD
ENDROOT
BRANCH   1   4
HETATM    4  C1  BES   501      38.690  17.977 197.700  1.00  0.00     0.116 C 
BRANCH   4   5
HETATM    5  C6  BES   501      38.641  19.011 196.571  1.00  0.00     0.066 C 
BRANCH   5   6
HETATM    6  C7  BES   501      39.819  18.914 195.587  1.00  0.00    -0.056 A 
HETATM    7  C8  BES   501      39.731  19.436 194.277  1.00  0.00     0.007 A 
HETATM    8  C9  BES   501      40.831  19.336 193.398  1.00  0.00     0.001 A 
HETATM    9  C10 BES   501      42.011  18.732 193.822  1.00  0.00     0.000 A 
HETATM   10  C11 BES   501      42.101  18.218 195.128  1.00  0.00     0.001 A 
HETATM   11  C12 BES   501      41.002  18.318 196.009  1.00  0.00     0.007 A 
ENDBRANCH   5   6
ENDBRANCH   4   5
BRANCH   4  12
HETATM   12  C2  BES   501      37.411  17.202 197.624  1.00  0.00     0.232 C 
BRANCH  12  13
HETATM   13  O2  BES   501      37.209  16.580 198.827  1.00  0.00    -0.384 OA
HETATM   14  H12 BES   501      37.521  17.211 199.604  1.00  0.00     0.210 HD
ENDBRANCH  12  13
BRANCH  12  15
HETATM   15  C3  BES   501      37.523  16.179 196.531  1.00  0.00     0.249 C 
HETATM   16  O3  BES   501      36.567  16.036 195.801  1.00  0.00    -0.271 OA
HETATM   17  N1  BES   501      38.767  15.409 196.395  1.00  0.00    -0.344 N 
HETATM   18  H23 BES   501      39.560  15.618 197.084  1.00  0.00     0.163 HD
BRANCH  17  19
HETATM   19  C4  BES   501      39.000  14.379 195.384  1.00  0.00     0.185 C 
BRANCH  19  20
HETATM   20  C13 BES   501      40.246  14.732 194.566  1.00  0.00     0.040 C 
BRANCH  20  21
HETATM   21  C14 BES   501      39.891  15.677 193.436  1.00  0.00    -0.020 C 
HETATM   22  C15 BES   501      40.942  15.558 192.332  1.00  0.00     0.009 C 
HETATM   23  C16 BES   501      38.531  15.377 192.889  1.00  0.00     0.009 C 
ENDBRANCH  20  21
ENDBRANCH  19  20
BRANCH  19  24
HETATM   24  C5  BES   501      39.252  13.094 196.102  1.00  0.00     0.196 C 
HETATM   25  O1  BES   501      40.436  12.678 196.230  1.00  0.00    -0.646 OA
HETATM   26  O4  BES   501      38.246  12.498 196.600  1.00  0.00    -0.646 OA
ENDBRANCH  19  24
ENDBRANCH  17  19
ENDBRANCH  12  15
ENDBRANCH   4  12
ENDBRANCH   1   4
TORSDOF 10
REMARK  7 active torsions:
REMARK  status: ('A' for Active; 'I' for Inactive)
REMARK    1  A    between atoms: N2_1  and  C1_2 
REMARK    2  A    between atoms: C1_2  and  C2_3 
REMARK    3  A    between atoms: C2_3  and  C3_4 
REMARK       I    between atoms: C3_4  and  N1_6 
REMARK    4  A    between atoms: N1_6  and  C4_7 
REMARK    5  A    between atoms: C4_7  and  C13_8 
REMARK    6  A    between atoms: C4_7  and  C5_10 
REMARK    7  A    between atoms: C13_8  and  C7_9 
ROOT
HETATM    1  N2  BES   501      39.056  11.371 199.369  1.00  0.00    -0.079 N 
HETATM    2  H1  BES   501      38.764  11.902 198.486  1.00  0.00     0.274 HD
HETATM    3  H2  BES   501      39.507  12.052 200.060  1.00  0.00     0.274 HD
HETATM    4  H1  BES   501      38.192  10.927 199.818  1.00  0.00     0.274 HD
ENDROOT
BRANCH   1   5
HETATM    5  C1  BES   501      40.024  10.316 199.012  1.00  0.00     0.238 C 
BRANCH   5   6
HETATM    6  C2  BES   501      41.449  10.732 199.209  1.00  0.00     0.123 C 
BRANCH   6   7
HETATM    7  C3  BES   501      41.478  12.104 199.819  1.00  0.00     0.199 C 
HETATM    8  O3  BES   501      41.608  12.177 201.020  1.00  0.00    -0.280 OA
HETATM    9  N1  BES   501      41.355  13.278 198.944  1.00  0.00    -0.248 NA
HETATM   10  H7  BES   501      40.428  13.153 198.423  1.00  0.00     0.131 HD
BRANCH   9  11
HETATM   11  C4  BES   501      41.357  14.665 199.411  1.00  0.00     0.169 C 
BRANCH  11  12
HETATM   12  C13 BES   501      41.843  15.585 198.287  1.00  0.00     0.089 C 
BRANCH  12  13
HETATM   13  C7  BES   501      42.858  16.609 198.829  1.00  0.00     0.031 A 
HETATM   14  C21 BES   501      42.525  18.001 199.399  1.00  0.00     0.143 A 
HETATM   15  N22 BES   501      43.845  18.672 199.816  1.00  0.00    -0.254 N 
HETATM   16  C23 BES   501      44.996  17.696 199.506  1.00  0.00     0.209 A 
HETATM   17  N24 BES   501      44.385  16.421 198.895  1.00  0.00    -0.348 N 
HETATM   18  C1  BES   501      45.155  15.192 198.438  1.00  0.00     0.157 C 
ENDBRANCH  12  13
ENDBRANCH  11  12
BRANCH  11  19
HETATM   19  C5  BES   501      39.948  15.027 199.747  1.00  0.00     0.192 C 
HETATM   20  O1  BES   501      39.002  14.328 199.290  1.00  0.00    -0.647 OA
HETATM   21  O4  BES   501      39.771  16.014 200.529  1.00  0.00    -0.647 OA
ENDBRANCH  11  19
ENDBRANCH   9  11
ENDBRANCH   6   7
ENDBRANCH   5   6
ENDBRANCH   1   5
TORSDOF 7
ENDMDL
MODEL 5
REMARK VINA RESULT:    -1.998      5.194      8.746
REMARK INTER + INTRA:          -6.765
REMARK INTER:                  -3.604
REMARK INTRA:                  -3.162
REMARK UNBOUND:                -2.957
REMARK  10 active torsions:
REMARK  status: ('A' for Active; 'I' for Inactive)
REMARK    1  A    between atoms: N2_1  and  C1_2 
REMARK    2  A    between atoms: C1_2  and  C6_3 
REMARK    3  A    between atoms: C1_2  and  C2_10 
REMARK    4  A    between atoms: C6_3  and  C7_4 
REMARK    5  A    between atoms: C2_10  and  O2_11 
REMARK    6  A    between atoms: C2_10  and  C3_12 
REMARK       I    between atoms: C3_12  and  N1_14 
REMARK    7  A    between atoms: N1_14  and  C4_15 
REMARK    8  A    between atoms: C4_15  and  C13_16 
REMARK    9  A    between atoms: C4_15  and  C5_20 
REMARK   10  A    between atoms: C13_16  and  C14_17 
ROOT
HETATM    1  N2  BES   501      34.212  16.711 194.078  1.00  0.00    -0.423 N 
HETATM    2  H1  BES   501      34.050  17.585 194.675  1.00  0.00     0.150 HD
HETATM    3  H2  BES   501      34.917  16.736 193.274  1.00  0.00     0.150 HD
ENDROOT
BRANCH   1   4
HETATM    4  C1  BES   501      33.481  15.506 194.357  1.00  0.00     0.116 C 
BRANCH   4   5
HETATM    5  C6  BES   501      32.824  14.799 193.167  1.00  0.00     0.066 C 
BRANCH   5   6
HETATM    6  C7  BES   501      33.259  13.333 192.998  1.00  0.00    -0.056 A 
HETATM    7  C8  BES   501      34.478  12.859 193.533  1.00  0.00     0.007 A 
HETATM    8  C9  BES   501      34.847  11.506 193.365  1.00  0.00     0.001 A 
HETATM    9  C10 BES   501      34.007  10.632 192.682  1.00  0.00     0.000 A 
HETATM   10  C11 BES   501      32.790  11.103 192.156  1.00  0.00     0.001 A 
HETATM   11  C12 BES   501      32.419  12.455 192.323  1.00  0.00     0.007 A 
ENDBRANCH   5   6
ENDBRANCH   4   5
BRANCH   4  12
HETATM   12  C2  BES   501      32.372  15.895 195.286  1.00  0.00     0.232 C 
BRANCH  12  13
HETATM   13  O2  BES   501      32.824  16.896 196.104  1.00  0.00    -0.384 OA
HETATM   14  H12 BES   501      32.329  16.845 197.027  1.00  0.00     0.210 HD
ENDBRANCH  12  13
BRANCH  12  15
HETATM   15  C3  BES   501      31.980  14.701 196.107  1.00  0.00     0.249 C 
HETATM   16  O3  BES   501      30.797  14.509 196.282  1.00  0.00    -0.271 OA
HETATM   17  N1  BES   501      33.030  13.831 196.653  1.00  0.00    -0.344 N 
HETATM   18  H23 BES   501      34.048  14.079 196.432  1.00  0.00     0.163 HD
BRANCH  17  19
HETATM   19  C4  BES   501      32.784  12.647 197.475  1.00  0.00     0.185 C 
BRANCH  19  20
HETATM   20  C13 BES   501      33.355  11.408 196.778  1.00  0.00     0.040 C 
BRANCH  20  21
HETATM   21  C14 BES   501      32.257  10.401 196.500  1.00  0.00    -0.020 C 
HETATM   22  C15 BES   501      31.223  11.030 195.565  1.00  0.00     0.009 C 
HETATM   23  C16 BES   501      32.811   9.152 195.891  1.00  0.00     0.009 C 
ENDBRANCH  20  21
ENDBRANCH  19  20
BRANCH  19  24
HETATM   24  C5  BES   501      33.507  12.840 198.768  1.00  0.00     0.196 C 
HETATM   25  O1  BES   501      34.689  12.417 198.885  1.00  0.00    -0.646 OA
HETATM   26  O4  BES   501      32.899  13.476 199.686  1.00  0.00    -0.646 OA
ENDBRANCH  19  24
ENDBRANCH  17  19
ENDBRANCH  12  15
ENDBRANCH   4  12
ENDBRANCH   1   4
TORSDOF 10
REMARK  7 active torsions:
REMARK  status: ('A' for Active; 'I' for Inactive)
REMARK    1  A    between atoms: N2_1  and  C1_2 
REMARK    2  A    between atoms: C1_2  and  C2_3 
REMARK    3  A    between atoms: C2_3  and  C3_4 
REMARK       I    between atoms: C3_4  and  N1_6 
REMARK    4  A    between atoms: N1_6  and  C4_7 
REMARK    5  A    between atoms: C4_7  and  C13_8 
REMARK    6  A    between atoms: C4_7  and  C5_10 
REMARK    7  A    between atoms: C13_8  and  C7_9 
ROOT
HETATM    1  N2  BES   501      35.332  15.027 200.881  1.00  0.00    -0.079 N 
HETATM    2  H1  BES   501      35.304  14.833 199.829  1.00  0.00     0.274 HD
HETATM    3  H2  BES   501      35.754  15.995 201.053  1.00  0.00     0.274 HD
HETATM    4  H1  BES   501      34.338  14.995 201.276  1.00  0.00     0.274 HD
ENDROOT
BRANCH   1   5
HETATM    5  C1  BES   501      36.160  14.003 201.549  1.00  0.00     0.238 C 
BRANCH   5   6
HETATM    6  C2  BES   501      37.479  13.778 200.875  1.00  0.00     0.123 C 
BRANCH   6   7
HETATM    7  C3  BES   501      37.577  14.684 199.681  1.00  0.00     0.199 C 
HETATM    8  O3  BES   501      38.246  15.686 199.797  1.00  0.00    -0.280 OA
HETATM    9  N1  BES   501      36.874  14.317 198.445  1.00  0.00    -0.248 NA
HETATM   10  H7  BES   501      35.843  14.220 198.718  1.00  0.00     0.131 HD
BRANCH   9  11
HETATM   11  C4  BES   501      36.880  15.114 197.219  1.00  0.00     0.169 C 
BRANCH  11  12
HETATM   12  C13 BES   501      36.616  14.207 196.013  1.00  0.00     0.089 C 
BRANCH  12  13
HETATM   13  C7  BES   501      37.869  13.377 195.677  1.00  0.00     0.031 A 
HETATM   14  C21 BES   501      39.151  13.904 195.004  1.00  0.00     0.143 A 
HETATM   15  N22 BES   501      40.134  12.728 194.866  1.00  0.00    -0.254 N 
HETATM   16  C23 BES   501      39.461  11.473 195.453  1.00  0.00     0.209 A 
HETATM   17  N24 BES   501      38.062  11.875 195.955  1.00  0.00    -0.348 N 
HETATM   18  C1  BES   501      37.047  10.950 196.609  1.00  0.00     0.157 C 
ENDBRANCH  12  13
ENDBRANCH  11  12
BRANCH  11  19
HETATM   19  C5  BES   501      35.767  16.105 197.322  1.00  0.00     0.192 C 
HETATM   20  O1  BES   501      34.802  15.873 198.101  1.00  0.00    -0.647 OA
HETATM   21  O4  BES   501      35.872  17.172 196.640  1.00  0.00    -0.647 OA
ENDBRANCH  11  19
ENDBRANCH   9  11
ENDBRANCH   6   7
ENDBRANCH   5   6
ENDBRANCH   1   5
TORSDOF 7
ENDMDL
MODEL 6
REMARK VINA RESULT:    -1.993      3.639      5.622
REMARK INTER + INTRA:          -6.755
REMARK INTER:                  -3.578
REMARK INTRA:                  -3.178
REMARK UNBOUND:                -2.957
REMARK  10 active torsions:
REMARK  status: ('A' for Active; 'I' for Inactive)
REMARK    1  A    between atoms: N2_1  and  C1_2 
REMARK    2  A    between atoms: C1_2  and  C6_3 
REMARK    3  A    between atoms: C1_2  and  C2_10 
REMARK    4  A    between atoms: C6_3  and  C7_4 
REMARK    5  A    between atoms: C2_10  and  O2_11 
REMARK    6  A    between atoms: C2_10  and  C3_12 
REMARK       I    between atoms: C3_12  and  N1_14 
REMARK    7  A    between atoms: N1_14  and  C4_15 
REMARK    8  A    between atoms: C4_15  and  C13_16 
REMARK    9  A    between atoms: C4_15  and  C5_20 
REMARK   10  A    between atoms: C13_16  and  C14_17 
ROOT
HETATM    1  N2  BES   501      35.264  16.404 197.150  1.00  0.00    -0.423 N 
HETATM    2  H1  BES   501      35.160  16.508 196.090  1.00  0.00     0.150 HD
HETATM    3  H2  BES   501      34.436  16.619 197.793  1.00  0.00     0.150 HD
ENDROOT
BRANCH   1   4
HETATM    4  C1  BES   501      36.517  15.978 197.711  1.00  0.00     0.116 C 
BRANCH   4   5
HETATM    5  C6  BES   501      37.334  17.029 198.468  1.00  0.00     0.066 C 
BRANCH   5   6
HETATM    6  C7  BES   501      37.475  16.742 199.973  1.00  0.00    -0.056 A 
HETATM    7  C8  BES   501      38.464  17.378 200.756  1.00  0.00     0.007 A 
HETATM    8  C9  BES   501      38.564  17.097 202.136  1.00  0.00     0.001 A 
HETATM    9  C10 BES   501      37.682  16.202 202.734  1.00  0.00     0.000 A 
HETATM   10  C11 BES   501      36.693  15.574 201.955  1.00  0.00     0.001 A 
HETATM   11  C12 BES   501      36.591  15.854 200.574  1.00  0.00     0.007 A 
ENDBRANCH   5   6
ENDBRANCH   4   5
BRANCH   4  12
HETATM   12  C2  BES   501      37.361  15.532 196.557  1.00  0.00     0.232 C 
BRANCH  12  13
HETATM   13  O2  BES   501      36.560  14.871 195.665  1.00  0.00    -0.384 OA
HETATM   14  H12 BES   501      35.574  14.854 196.025  1.00  0.00     0.210 HD
ENDBRANCH  12  13
BRANCH  12  15
HETATM   15  C3  BES   501      38.434  14.611 197.061  1.00  0.00     0.249 C 
HETATM   16  O3  BES   501      39.552  14.768 196.626  1.00  0.00    -0.271 OA
HETATM   17  N1  BES   501      38.086  13.579 198.046  1.00  0.00    -0.344 N 
HETATM   18  H23 BES   501      37.069  13.529 198.379  1.00  0.00     0.163 HD
BRANCH  17  19
HETATM   19  C4  BES   501      39.031  12.614 198.607  1.00  0.00     0.185 C 
BRANCH  19  20
HETATM   20  C13 BES   501      38.972  12.666 200.138  1.00  0.00     0.040 C 
BRANCH  20  21
HETATM   21  C14 BES   501      39.782  13.835 200.662  1.00  0.00    -0.020 C 
HETATM   22  C15 BES   501      40.150  13.576 202.123  1.00  0.00     0.009 C 
HETATM   23  C16 BES   501      41.019  14.043 199.847  1.00  0.00     0.009 C 
ENDBRANCH  20  21
ENDBRANCH  19  20
BRANCH  19  24
HETATM   24  C5  BES   501      38.603  11.255 198.162  1.00  0.00     0.196 C 
HETATM   25  O1  BES   501      37.899  10.544 198.931  1.00  0.00    -0.646 OA
HETATM   26  O4  BES   501      38.935  10.895 196.989  1.00  0.00    -0.646 OA
ENDBRANCH  19  24
ENDBRANCH  17  19
ENDBRANCH  12  15
ENDBRANCH   4  12
ENDBRANCH   1   4
TORSDOF 10
REMARK  7 active torsions:
REMARK  status: ('A' for Active; 'I' for Inactive)
REMARK    1  A    between atoms: N2_1  and  C1_2 
REMARK    2  A    between atoms: C1_2  and  C2_3 
REMARK    3  A    between atoms: C2_3  and  C3_4 
REMARK       I    between atoms: C3_4  and  N1_6 
REMARK    4  A    between atoms: N1_6  and  C4_7 
REMARK    5  A    between atoms: C4_7  and  C13_8 
REMARK    6  A    between atoms: C4_7  and  C5_10 
REMARK    7  A    between atoms: C13_8  and  C7_9 
ROOT
HETATM    1  N2  BES   501      36.146   8.911 200.836  1.00  0.00    -0.079 N 
HETATM    2  H1  BES   501      35.551   9.733 200.497  1.00  0.00     0.274 HD
HETATM    3  H2  BES   501      37.178   9.191 200.827  1.00  0.00     0.274 HD
HETATM    4  H1  BES   501      35.856   8.650 201.833  1.00  0.00     0.274 HD
ENDROOT
BRANCH   1   5
HETATM    5  C1  BES   501      35.941   7.753 199.944  1.00  0.00     0.238 C 
BRANCH   5   6
HETATM    6  C2  BES   501      34.932   8.008 198.867  1.00  0.00     0.123 C 
BRANCH   6   7
HETATM    7  C3  BES   501      34.311   9.357 199.090  1.00  0.00     0.199 C 
HETATM    8  O3  BES   501      33.325   9.407 199.790  1.00  0.00    -0.280 OA
HETATM    9  N1  BES   501      34.919  10.537 198.461  1.00  0.00    -0.248 NA
HETATM   10  H7  BES   501      34.928  10.332 197.411  1.00  0.00     0.131 HD
BRANCH   9  11
HETATM   11  C4  BES   501      34.408  11.902 198.589  1.00  0.00     0.169 C 
BRANCH  11  12
HETATM   12  C13 BES   501      35.133  12.618 199.734  1.00  0.00     0.089 C 
BRANCH  12  13
HETATM   13  C7  BES   501      34.170  12.865 200.910  1.00  0.00     0.031 A 
HETATM   14  C21 BES   501      34.034  11.987 202.169  1.00  0.00     0.143 A 
HETATM   15  N22 BES   501      32.954  12.613 203.070  1.00  0.00    -0.254 N 
HETATM   16  C23 BES   501      32.424  13.879 202.371  1.00  0.00     0.209 A 
HETATM   17  N24 BES   501      33.176  14.034 201.036  1.00  0.00    -0.348 N 
HETATM   18  C1  BES   501      32.971  15.146 200.019  1.00  0.00     0.157 C 
ENDBRANCH  12  13
ENDBRANCH  11  12
BRANCH  11  19
HETATM   19  C5  BES   501      34.712  12.616 197.313  1.00  0.00     0.192 C 
HETATM   20  O1  BES   501      34.022  13.621 196.986  1.00  0.00    -0.647 OA
HETATM   21  O4  BES   501      35.697  12.194 196.630  1.00  0.00    -0.647 OA
ENDBRANCH  11  19
ENDBRANCH   9  11
ENDBRANCH   6   7
ENDBRANCH   5   6
ENDBRANCH   1   5
TORSDOF 7
ENDMDL
MODEL 7
REMARK VINA RESULT:    -1.983      6.418     10.494
REMARK INTER + INTRA:          -6.737
REMARK INTER:                  -3.624
REMARK INTRA:                  -3.113
REMARK UNBOUND:                -2.957
REMARK  10 active torsions:
REMARK  status: ('A' for Active; 'I' for Inactive)
REMARK    1  A    between atoms: N2_1  and  C1_2 
REMARK    2  A    between atoms: C1_2  and  C6_3 
REMARK    3  A    between atoms: C1_2  and  C2_10 
REMARK    4  A    between atoms: C6_3  and  C7_4 
REMARK    5  A    between atoms: C2_10  and  O2_11 
REMARK    6  A    between atoms: C2_10  and  C3_12 
REMARK       I    between atoms: C3_12  and  N1_14 
REMARK    7  A    between atoms: N1_14  and  C4_15 
REMARK    8  A    between atoms: C4_15  and  C13_16 
REMARK    9  A    between atoms: C4_15  and  C5_20 
REMARK   10  A    between atoms: C13_16  and  C14_17 
ROOT
HETATM    1  N2  BES   501      43.401  15.263 193.951  1.00  0.00    -0.423 N 
HETATM    2  H1  BES   501      43.368  14.739 194.883  1.00  0.00     0.150 HD
HETATM    3  H2  BES   501      43.777  16.264 193.913  1.00  0.00     0.150 HD
ENDROOT
BRANCH   1   4
HETATM    4  C1  BES   501      42.940  14.622 192.750  1.00  0.00     0.116 C 
BRANCH   4   5
HETATM    5  C6  BES   501      43.405  13.183 192.506  1.00  0.00     0.066 C 
BRANCH   5   6
HETATM    6  C7  BES   501      42.257  12.195 192.240  1.00  0.00    -0.056 A 
HETATM    7  C8  BES   501      42.480  10.964 191.584  1.00  0.00     0.007 A 
HETATM    8  C9  BES   501      41.406  10.075 191.360  1.00  0.00     0.001 A 
HETATM    9  C10 BES   501      40.125  10.403 191.794  1.00  0.00     0.000 A 
HETATM   10  C11 BES   501      39.904  11.626 192.453  1.00  0.00     0.001 A 
HETATM   11  C12 BES   501      40.977  12.516 192.679  1.00  0.00     0.007 A 
ENDBRANCH   5   6
ENDBRANCH   4   5
BRANCH   4  12
HETATM   12  C2  BES   501      43.468  15.439 191.611  1.00  0.00     0.232 C 
BRANCH  12  13
HETATM   13  O2  BES   501      43.509  16.751 192.002  1.00  0.00    -0.384 OA
HETATM   14  H12 BES   501      42.648  16.977 192.558  1.00  0.00     0.210 HD
ENDBRANCH  12  13
BRANCH  12  15
HETATM   15  C3  BES   501      42.553  15.285 190.431  1.00  0.00     0.249 C 
HETATM   16  O3  BES   501      43.063  15.062 189.356  1.00  0.00    -0.271 OA
HETATM   17  N1  BES   501      41.103  15.408 190.629  1.00  0.00    -0.344 N 
HETATM   18  H23 BES   501      40.749  15.594 191.623  1.00  0.00     0.163 HD
BRANCH  17  19
HETATM   19  C4  BES   501      40.107  15.291 189.565  1.00  0.00     0.185 C 
BRANCH  19  20
HETATM   20  C13 BES   501      39.208  14.078 189.833  1.00  0.00     0.040 C 
BRANCH  20  21
HETATM   21  C14 BES   501      39.297  13.088 188.689  1.00  0.00    -0.020 C 
HETATM   22  C15 BES   501      40.701  12.483 188.656  1.00  0.00     0.009 C 
HETATM   23  C16 BES   501      38.273  12.007 188.830  1.00  0.00     0.009 C 
ENDBRANCH  20  21
ENDBRANCH  19  20
BRANCH  19  24
HETATM   24  C5  BES   501      39.264  16.523 189.602  1.00  0.00     0.196 C 
HETATM   25  O1  BES   501      38.227  16.543 190.319  1.00  0.00    -0.646 OA
HETATM   26  O4  BES   501      39.669  17.525 188.933  1.00  0.00    -0.646 OA
ENDBRANCH  19  24
ENDBRANCH  17  19
ENDBRANCH  12  15
ENDBRANCH   4  12
ENDBRANCH   1   4
TORSDOF 10
REMARK  7 active torsions:
REMARK  status: ('A' for Active; 'I' for Inactive)
REMARK    1  A    between atoms: N2_1  and  C1_2 
REMARK    2  A    between atoms: C1_2  and  C2_3 
REMARK    3  A    between atoms: C2_3  and  C3_4 
REMARK       I    between atoms: C3_4  and  N1_6 
REMARK    4  A    between atoms: N1_6  and  C4_7 
REMARK    5  A    between atoms: C4_7  and  C13_8 
REMARK    6  A    between atoms: C4_7  and  C5_10 
REMARK    7  A    between atoms: C13_8  and  C7_9 
ROOT
HETATM    1  N2  BES   501      38.713  19.737 191.025  1.00  0.00    -0.079 N 
HETATM    2  H1  BES   501      38.984  18.853 190.486  1.00  0.00     0.274 HD
HETATM    3  H2  BES   501      39.075  19.666 192.029  1.00  0.00     0.274 HD
HETATM    4  H1  BES   501      39.148  20.591 190.548  1.00  0.00     0.274 HD
ENDROOT
BRANCH   1   5
HETATM    5  C1  BES   501      37.244  19.875 191.038  1.00  0.00     0.238 C 
BRANCH   5   6
HETATM    6  C2  BES   501      36.597  19.187 192.201  1.00  0.00     0.123 C 
BRANCH   6   7
HETATM    7  C3  BES   501      37.657  18.806 193.194  1.00  0.00     0.199 C 
HETATM    8  O3  BES   501      37.872  19.576 194.102  1.00  0.00    -0.280 OA
HETATM    9  N1  BES   501      38.371  17.533 193.025  1.00  0.00    -0.248 NA
HETATM   10  H7  BES   501      38.813  17.578 192.051  1.00  0.00     0.131 HD
BRANCH   9  11
HETATM   11  C4  BES   501      39.428  17.050 193.913  1.00  0.00     0.169 C 
BRANCH  11  12
HETATM   12  C13 BES   501      39.515  15.523 193.827  1.00  0.00     0.089 C 
BRANCH  12  13
HETATM   13  C7  BES   501      39.468  14.900 195.235  1.00  0.00     0.031 A 
HETATM   14  C21 BES   501      40.372  15.279 196.424  1.00  0.00     0.143 A 
HETATM   15  N22 BES   501      39.972  14.401 197.623  1.00  0.00    -0.254 N 
HETATM   16  C23 BES   501      38.821  13.480 197.178  1.00  0.00     0.209 A 
HETATM   17  N24 BES   501      38.510  13.789 195.701  1.00  0.00    -0.348 N 
HETATM   18  C1  BES   501      37.444  13.114 194.852  1.00  0.00     0.157 C 
ENDBRANCH  12  13
ENDBRANCH  11  12
BRANCH  11  19
HETATM   19  C5  BES   501      40.718  17.629 193.430  1.00  0.00     0.192 C 
HETATM   20  O1  BES   501      40.821  17.995 192.227  1.00  0.00    -0.647 OA
HETATM   21  O4  BES   501      41.650  17.766 194.283  1.00  0.00    -0.647 OA
ENDBRANCH  11  19
ENDBRANCH   9  11
ENDBRANCH   6   7
ENDBRANCH   5   6
ENDBRANCH   1   5
TORSDOF 7
ENDMDL
MODEL 8
REMARK VINA RESULT:    -1.983      3.214      6.944
REMARK INTER + INTRA:          -6.736
REMARK INTER:                  -3.581
REMARK INTRA:                  -3.155
REMARK UNBOUND:                -2.957
REMARK  10 active torsions:
REMARK  status: ('A' for Active; 'I' for Inactive)
REMARK    1  A    between atoms: N2_1  and  C1_2 
REMARK    2  A    between atoms: C1_2  and  C6_3 
REMARK    3  A    between atoms: C1_2  and  C2_10 
REMARK    4  A    between atoms: C6_3  and  C7_4 
REMARK    5  A    between atoms: C2_10  and  O2_11 
REMARK    6  A    between atoms: C2_10  and  C3_12 
REMARK       I    between atoms: C3_12  and  N1_14 
REMARK    7  A    between atoms: N1_14  and  C4_15 
REMARK    8  A    between atoms: C4_15  and  C13_16 
REMARK    9  A    between atoms: C4_15  and  C5_20 
REMARK   10  A    between atoms: C13_16  and  C14_17 
ROOT
HETATM    1  N2  BES   501      38.553  14.552 197.545  1.00  0.00    -0.423 N 
HETATM    2  H1  BES   501      39.050  15.149 198.281  1.00  0.00     0.150 HD
HETATM    3  H2  BES   501      38.832  13.528 197.409  1.00  0.00     0.150 HD
ENDROOT
BRANCH   1   4
HETATM    4  C1  BES   501      37.512  15.127 196.737  1.00  0.00     0.116 C 
BRANCH   4   5
HETATM    5  C6  BES   501      37.092  14.349 195.486  1.00  0.00     0.066 C 
BRANCH   5   6
HETATM    6  C7  BES   501      35.659  13.795 195.551  1.00  0.00    -0.056 A 
HETATM    7  C8  BES   501      34.937  13.479 194.378  1.00  0.00     0.007 A 
HETATM    8  C9  BES   501      33.624  12.967 194.470  1.00  0.00     0.001 A 
HETATM    9  C10 BES   501      33.040  12.759 195.717  1.00  0.00     0.000 A 
HETATM   10  C11 BES   501      33.763  13.067 196.884  1.00  0.00     0.001 A 
HETATM   11  C12 BES   501      35.076  13.579 196.794  1.00  0.00     0.007 A 
ENDBRANCH   5   6
ENDBRANCH   4   5
BRANCH   4  12
HETATM   12  C2  BES   501      38.033  16.448 196.262  1.00  0.00     0.232 C 
BRANCH  12  13
HETATM   13  O2  BES   501      38.806  16.991 197.254  1.00  0.00    -0.384 OA
HETATM   14  H12 BES   501      39.668  16.408 197.384  1.00  0.00     0.210 HD
ENDBRANCH  12  13
BRANCH  12  15
HETATM   15  C3  BES   501      36.874  17.354 195.964  1.00  0.00     0.249 C 
HETATM   16  O3  BES   501      36.946  18.043 194.971  1.00  0.00    -0.271 OA
HETATM   17  N1  BES   501      35.720  17.364 196.873  1.00  0.00    -0.344 N 
HETATM   18  H23 BES   501      35.747  16.708 197.719  1.00  0.00     0.163 HD
BRANCH  17  19
HETATM   19  C4  BES   501      34.536  18.204 196.703  1.00  0.00     0.185 C 
BRANCH  19  20
HETATM   20  C13 BES   501      33.273  17.344 196.821  1.00  0.00     0.040 C 
BRANCH  20  21
HETATM   21  C14 BES   501      33.060  16.537 195.557  1.00  0.00    -0.020 C 
HETATM   22  C15 BES   501      31.603  16.075 195.495  1.00  0.00     0.009 C 
HETATM   23  C16 BES   501      33.398  17.339 194.340  1.00  0.00     0.009 C 
ENDBRANCH  20  21
ENDBRANCH  19  20
BRANCH  19  24
HETATM   24  C5  BES   501      34.533  19.205 197.811  1.00  0.00     0.196 C 
HETATM   25  O1  BES   501      33.648  19.136 198.707  1.00  0.00    -0.646 OA
HETATM   26  O4  BES   501      35.471  20.064 197.822  1.00  0.00    -0.646 OA
ENDBRANCH  19  24
ENDBRANCH  17  19
ENDBRANCH  12  15
ENDBRANCH   4  12
ENDBRANCH   1   4
TORSDOF 10
REMARK  7 active torsions:
REMARK  status: ('A' for Active; 'I' for Inactive)
REMARK    1  A    between atoms: N2_1  and  C1_2 
REMARK    2  A    between atoms: C1_2  and  C2_3 
REMARK    3  A    between atoms: C2_3  and  C3_4 
REMARK       I    between atoms: C3_4  and  N1_6 
REMARK    4  A    between atoms: N1_6  and  C4_7 
REMARK    5  A    between atoms: C4_7  and  C13_8 
REMARK    6  A    between atoms: C4_7  and  C5_10 
REMARK    7  A    between atoms: C13_8  and  C7_9 
ROOT
HETATM    1  N2  BES   501      36.607  20.185 200.732  1.00  0.00    -0.079 N 
HETATM    2  H1  BES   501      37.283  19.913 201.516  1.00  0.00     0.274 HD
HETATM    3  H2  BES   501      37.096  20.857 200.058  1.00  0.00     0.274 HD
HETATM    4  H1  BES   501      36.305  19.306 200.202  1.00  0.00     0.274 HD
ENDROOT
BRANCH   1   5
HETATM    5  C1  BES   501      35.420  20.844 201.311  1.00  0.00     0.238 C 
BRANCH   5   6
HETATM    6  C2  BES   501      34.614  19.941 202.192  1.00  0.00     0.123 C 
BRANCH   6   7
HETATM    7  C3  BES   501      35.202  18.560 202.145  1.00  0.00     0.199 C 
HETATM    8  O3  BES   501      35.866  18.206 203.093  1.00  0.00    -0.280 OA
HETATM    9  N1  BES   501      34.946  17.713 200.973  1.00  0.00    -0.248 NA
HETATM   10  H7  BES   501      35.306  18.269 200.131  1.00  0.00     0.131 HD
BRANCH   9  11
HETATM   11  C4  BES   501      35.467  16.357 200.798  1.00  0.00     0.169 C 
BRANCH  11  12
HETATM   12  C13 BES   501      34.569  15.581 199.831  1.00  0.00     0.089 C 
BRANCH  12  13
HETATM   13  C7  BES   501      34.118  14.250 200.462  1.00  0.00     0.031 A 
HETATM   14  C21 BES   501      35.002  13.294 201.287  1.00  0.00     0.143 A 
HETATM   15  N22 BES   501      34.135  12.096 201.713  1.00  0.00    -0.254 N 
HETATM   16  C23 BES   501      32.716  12.309 201.153  1.00  0.00     0.209 A 
HETATM   17  N24 BES   501      32.707  13.641 200.380  1.00  0.00    -0.348 N 
HETATM   18  C1  BES   501      31.512  14.248 199.662  1.00  0.00     0.157 C 
ENDBRANCH  12  13
ENDBRANCH  11  12
BRANCH  11  19
HETATM   19  C5  BES   501      36.828  16.474 200.195  1.00  0.00     0.192 C 
HETATM   20  O1  BES   501      37.649  15.525 200.328  1.00  0.00    -0.647 OA
HETATM   21  O4  BES   501      37.080  17.526 199.526  1.00  0.00    -0.647 OA
ENDBRANCH  11  19
ENDBRANCH   9  11
ENDBRANCH   6   7
ENDBRANCH   5   6
ENDBRANCH   1   5
TORSDOF 7
ENDMDL
MODEL 9
REMARK VINA RESULT:    -1.974      5.501      9.036
REMARK INTER + INTRA:          -6.719
REMARK INTER:                  -3.600
REMARK INTRA:                  -3.119
REMARK UNBOUND:                -2.957
REMARK  10 active torsions:
REMARK  status: ('A' for Active; 'I' for Inactive)
REMARK    1  A    between atoms: N2_1  and  C1_2 
REMARK    2  A    between atoms: C1_2  and  C6_3 
REMARK    3  A    between atoms: C1_2  and  C2_10 
REMARK    4  A    between atoms: C6_3  and  C7_4 
REMARK    5  A    between atoms: C2_10  and  O2_11 
REMARK    6  A    between atoms: C2_10  and  C3_12 
REMARK       I    between atoms: C3_12  and  N1_14 
REMARK    7  A    between atoms: N1_14  and  C4_15 
REMARK    8  A    between atoms: C4_15  and  C13_16 
REMARK    9  A    between atoms: C4_15  and  C5_20 
REMARK   10  A    between atoms: C13_16  and  C14_17 
ROOT
HETATM    1  N2  BES   501      35.318  10.385 200.159  1.00  0.00    -0.423 N 
HETATM    2  H1  BES   501      35.599   9.412 199.814  1.00  0.00     0.150 HD
HETATM    3  H2  BES   501      34.292  10.601 200.374  1.00  0.00     0.150 HD
ENDROOT
BRANCH   1   4
HETATM    4  C1  BES   501      36.318  11.403 200.332  1.00  0.00     0.116 C 
BRANCH   4   5
HETATM    5  C6  BES   501      35.840  12.771 200.829  1.00  0.00     0.066 C 
BRANCH   5   6
HETATM    6  C7  BES   501      36.422  13.174 202.194  1.00  0.00    -0.056 A 
HETATM    7  C8  BES   501      37.160  12.261 202.980  1.00  0.00     0.007 A 
HETATM    8  C9  BES   501      37.686  12.663 204.228  1.00  0.00     0.001 A 
HETATM    9  C10 BES   501      37.490  13.963 204.683  1.00  0.00     0.000 A 
HETATM   10  C11 BES   501      36.761  14.874 203.897  1.00  0.00     0.001 A 
HETATM   11  C12 BES   501      36.234  14.474 202.649  1.00  0.00     0.007 A 
ENDBRANCH   5   6
ENDBRANCH   4   5
BRANCH   4  12
HETATM   12  C2  BES   501      36.923  11.628 198.981  1.00  0.00     0.232 C 
BRANCH  12  13
HETATM   13  O2  BES   501      37.199  10.409 198.422  1.00  0.00    -0.384 OA
HETATM   14  H12 BES   501      37.203   9.673 199.170  1.00  0.00     0.210 HD
ENDBRANCH  12  13
BRANCH  12  15
HETATM   15  C3  BES   501      38.190  12.417 199.137  1.00  0.00     0.249 C 
HETATM   16  O3  BES   501      38.317  13.409 198.453  1.00  0.00    -0.271 OA
HETATM   17  N1  BES   501      39.205  11.961 200.096  1.00  0.00    -0.344 N 
HETATM   18  H23 BES   501      38.993  11.077 200.662  1.00  0.00     0.163 HD
BRANCH  17  19
HETATM   19  C4  BES   501      40.483  12.630 200.335  1.00  0.00     0.185 C 
BRANCH  19  20
HETATM   20  C13 BES   501      40.745  12.716 201.842  1.00  0.00     0.040 C 
BRANCH  20  21
HETATM   21  C14 BES   501      40.969  14.155 202.262  1.00  0.00    -0.020 C 
HETATM   22  C15 BES   501      39.817  15.015 201.740  1.00  0.00     0.009 C 
HETATM   23  C16 BES   501      41.068  14.274 203.750  1.00  0.00     0.009 C 
ENDBRANCH  20  21
ENDBRANCH  19  20
BRANCH  19  24
HETATM   24  C5  BES   501      41.551  11.793 199.714  1.00  0.00     0.196 C 
HETATM   25  O1  BES   501      41.971  10.771 200.324  1.00  0.00    -0.646 OA
HETATM   26  O4  BES   501      41.957  12.130 198.557  1.00  0.00    -0.646 OA
ENDBRANCH  19  24
ENDBRANCH  17  19
ENDBRANCH  12  15
ENDBRANCH   4  12
ENDBRANCH   1   4
TORSDOF 10
REMARK  7 active torsions:
REMARK  status: ('A' for Active; 'I' for Inactive)
REMARK    1  A    between atoms: N2_1  and  C1_2 
REMARK    2  A    between atoms: C1_2  and  C2_3 
REMARK    3  A    between atoms: C2_3  and  C3_4 
REMARK       I    between atoms: C3_4  and  N1_6 
REMARK    4  A    between atoms: N1_6  and  C4_7 
REMARK    5  A    between atoms: C4_7  and  C13_8 
REMARK    6  A    between atoms: C4_7  and  C5_10 
REMARK    7  A    between atoms: C13_8  and  C7_9 
ROOT
HETATM    1  N2  BES   501      38.293   7.966 196.983  1.00  0.00    -0.079 N 
HETATM    2  H1  BES   501      37.703   8.651 197.556  1.00  0.00     0.274 HD
HETATM    3  H2  BES   501      38.642   7.179 197.619  1.00  0.00     0.274 HD
HETATM    4  H1  BES   501      37.695   7.552 196.198  1.00  0.00     0.274 HD
ENDROOT
BRANCH   1   5
HETATM    5  C1  BES   501      39.447   8.678 196.400  1.00  0.00     0.238 C 
BRANCH   5   6
HETATM    6  C2  BES   501      40.482   9.055 197.415  1.00  0.00     0.123 C 
BRANCH   6   7
HETATM    7  C3  BES   501      40.239   8.273 198.674  1.00  0.00     0.199 C 
HETATM    8  O3  BES   501      40.740   7.174 198.752  1.00  0.00    -0.280 OA
HETATM    9  N1  BES   501      39.422   8.869 199.740  1.00  0.00    -0.248 NA
HETATM   10  H7  BES   501      38.478   9.093 199.287  1.00  0.00     0.131 HD
BRANCH   9  11
HETATM   11  C4  BES   501      39.102   8.210 201.006  1.00  0.00     0.169 C 
BRANCH  11  12
HETATM   12  C13 BES   501      39.316   9.191 202.164  1.00  0.00     0.089 C 
BRANCH  12  13
HETATM   13  C7  BES   501      40.553   8.789 202.989  1.00  0.00     0.031 A 
HETATM   14  C21 BES   501      41.768   7.995 202.473  1.00  0.00     0.143 A 
HETATM   15  N22 BES   501      42.756   7.826 203.640  1.00  0.00    -0.254 N 
HETATM   16  C23 BES   501      42.155   8.516 204.879  1.00  0.00     0.209 A 
HETATM   17  N24 BES   501      40.793   9.111 204.476  1.00  0.00    -0.348 N 
HETATM   18  C1  BES   501      39.849   9.882 205.387  1.00  0.00     0.157 C 
ENDBRANCH  12  13
ENDBRANCH  11  12
BRANCH  11  19
HETATM   19  C5  BES   501      37.658   7.832 200.963  1.00  0.00     0.192 C 
HETATM   20  O1  BES   501      37.035   7.890 199.868  1.00  0.00    -0.647 OA
HETATM   21  O4  BES   501      37.132   7.420 202.044  1.00  0.00    -0.647 OA
ENDBRANCH  11  19
ENDBRANCH   9  11
ENDBRANCH   6   7
ENDBRANCH   5   6
ENDBRANCH   1   5
TORSDOF 7
ENDMDL
