MODEL 1
REMARK VINA RESULT:    -4.130      0.000      0.000
REMARK INTER + INTRA:         -12.314
REMARK INTER:                  -8.235
REMARK INTRA:                  -4.078
REMARK UNBOUND:                -4.078
REMARK  10 active torsions:
REMARK  status: ('A' for Active; 'I' for Inactive)
REMARK    1  A    between atoms: O1_1  and  C31_31 
REMARK    2  A    between atoms: O1_1  and  C21_21 
REMARK    3  A    between atoms: O3_3  and  C41_41 
REMARK    4  A    between atoms: O4_4  and  C43_43 
REMARK    5  A    between atoms: C18_18  and  C25_25 
REMARK    6  A    between atoms: C25_25  and  C28_28 
REMARK    7  A    between atoms: C28_28  and  C30_30 
REMARK    8  A    between atoms: C30_30  and  C32_32 
REMARK    9  A    between atoms: C31_31  and  C33_33 
REMARK   10  A    between atoms: C35_35  and  C38_38 
ROOT
HETATM    1  O1  UNK     0      33.711  11.840 199.784  1.00  0.00    -0.312 OA
ENDROOT
BRANCH   1   2
HETATM    2  C31 UNK     0      34.367  10.449 200.173  1.00  0.00     0.283 C 
HETATM    3  O2  UNK     0      33.810   9.760 201.033  1.00  0.00    -0.260 OA
BRANCH   2   4
HETATM    4  C33 UNK     0      35.721   9.802 199.441  1.00  0.00     0.083 C 
HETATM    5  C35 UNK     0      35.751   9.394 198.115  1.00  0.00     0.017 C 
BRANCH   5   6
HETATM    6  C38 UNK     0      37.001   8.830 197.197  1.00  0.00    -0.033 A 
HETATM    7  C39 UNK     0      36.789   8.455 195.910  1.00  0.00     0.051 A 
HETATM    8  C41 UNK     0      37.933   7.961 195.009  1.00  0.00     0.102 A 
HETATM    9  C43 UNK     0      39.177   7.942 195.470  1.00  0.00     0.099 A 
HETATM   10  C42 UNK     0      39.429   8.347 196.875  1.00  0.00     0.040 A 
HETATM   11  C40 UNK     0      38.426   8.765 197.682  1.00  0.00     0.014 A 
BRANCH   8  12
HETATM   12  O3  UNK     0      37.735   7.552 193.660  1.00  0.00    -0.353 OA
HETATM   13  C44 UNK     0      36.402   7.772 193.211  1.00  0.00     0.210 C 
ENDBRANCH   8  12
BRANCH   9  14
HETATM   14  O4  UNK     0      40.227   7.496 194.605  1.00  0.00    -0.358 OA
HETATM   15  H99 UNK     0      40.808   6.830 195.053  1.00  0.00     0.217 HD
ENDBRANCH   9  14
ENDBRANCH   5   6
ENDBRANCH   2   4
ENDBRANCH   1   2
BRANCH   1  16
HETATM   16  C21 UNK     0      34.553  13.069 199.054  1.00  0.00     0.140 C 
HETATM   17  C17 UNK     0      34.578  14.426 199.992  1.00  0.00    -0.017 C 
HETATM   18  C9  UNK     0      35.495  15.668 199.311  1.00  0.00     0.005 C 
HETATM   19  C27 UNK     0      33.108  14.870 200.227  1.00  0.00     0.018 C 
HETATM   20  C26 UNK     0      35.188  14.076 201.362  1.00  0.00     0.018 C 
HETATM   21  C6  UNK     0      35.008  16.078 197.882  1.00  0.00    -0.027 A 
HETATM   22  C15 UNK     0      35.479  16.982 200.217  1.00  0.00     0.007 C 
HETATM   23  C5  UNK     0      35.533  17.508 197.241  1.00  0.00    -0.027 A 
HETATM   24  C7  UNK     0      33.977  17.003 197.758  1.00  0.00     0.021 A 
HETATM   25  C13 UNK     0      34.917  14.776 196.967  1.00  0.00     0.013 C 
HETATM   26  C8  UNK     0      35.716  18.729 198.241  1.00  0.00     0.004 C 
HETATM   27  C11 UNK     0      35.041  18.071 195.820  1.00  0.00     0.011 C 
HETATM   28  C10 UNK     0      36.652  19.925 197.578  1.00  0.00    -0.032 C 
HETATM   29  C14 UNK     0      36.328  18.177 199.592  1.00  0.00     0.007 C 
HETATM   30  C19 UNK     0      36.738  21.270 198.407  1.00  0.00     0.011 C 
HETATM   31  C23 UNK     0      38.090  19.360 197.349  1.00  0.00     0.016 C 
HETATM   32  C12 UNK     0      36.080  20.468 196.225  1.00  0.00    -0.032 C 
HETATM   33  C22 UNK     0      36.934  22.462 197.304  1.00  0.00     0.006 C 
HETATM   34  C18 UNK     0      37.109  21.746 195.925  1.00  0.00    -0.002 C 
HETATM   35  C16 UNK     0      36.009  19.239 195.228  1.00  0.00     0.011 C 
HETATM   36  C24 UNK     0      34.651  21.058 196.417  1.00  0.00     0.016 C 
HETATM   37  C20 UNK     0      33.982  13.578 197.640  1.00  0.00     0.034 C 
BRANCH  34  38
HETATM   38  C25 UNK     0      36.843  22.751 194.627  1.00  0.00    -0.014 C 
HETATM   39  C29 UNK     0      37.060  21.994 193.301  1.00  0.00     0.010 C 
BRANCH  38  40
HETATM   40  C28 UNK     0      37.796  24.045 194.583  1.00  0.00     0.008 C 
BRANCH  40  41
HETATM   41  C30 UNK     0      39.300  23.625 194.193  1.00  0.00     0.028 C 
BRANCH  41  42
HETATM   42  C32 UNK     0      40.197  23.298 195.413  1.00  0.00    -0.025 C 
HETATM   43  C34 UNK     0      40.707  22.067 195.619  1.00  0.00    -0.091 C 
HETATM   44  C36 UNK     0      41.591  21.798 196.815  1.00  0.00     0.042 C 
HETATM   45  C37 UNK     0      40.409  20.935 194.667  1.00  0.00     0.042 C 
ENDBRANCH  41  42
ENDBRANCH  40  41
ENDBRANCH  38  40
ENDBRANCH  34  38
ENDBRANCH   1  16
TORSDOF 10
REMARK  10 active torsions:
REMARK  status: ('A' for Active; 'I' for Inactive)
REMARK    1  A    between atoms: O1_1  and  C12_12 
REMARK    2  A    between atoms: O2_2  and  C13_13 
REMARK    3  A    between atoms: O3_3  and  C18_18 
REMARK    4  A    between atoms: O4_4  and  C19_19 
REMARK    5  A    between atoms: C7_7  and  C16_16 
REMARK    6  A    between atoms: C8_8  and  C17_17 
REMARK    7  A    between atoms: C9_9  and  C21_21 
REMARK    8  A    between atoms: C9_9  and  C20_20 
REMARK    9  A    between atoms: C20_20  and  C24_24 
REMARK   10  A    between atoms: C21_21  and  C25_25 
ROOT
HETATM    1  O1          0      35.542  11.433 192.935  1.00  0.00    -0.353 OA
HETATM    2  C26         0      34.394  11.037 193.687  1.00  0.00     0.210 C 
ENDROOT
BRANCH   1   3
HETATM    3  C12         0      36.690  11.544 193.749  1.00  0.00     0.102 A 
HETATM    4  C18         0      37.872  11.235 193.222  1.00  0.00     0.099 A 
HETATM    5  C22         0      39.087  11.339 194.045  1.00  0.00     0.040 A 
HETATM    6  C14         0      39.017  11.743 195.320  1.00  0.00     0.014 A 
HETATM    7  C7          0      37.717  12.093 195.929  1.00  0.00    -0.033 A 
HETATM    8  C10         0      36.609  11.997 195.176  1.00  0.00     0.051 A 
BRANCH   4   9
HETATM    9  O3          0      37.941  10.810 191.885  1.00  0.00    -0.358 OA
HETATM   10  H40         0      38.880  10.824 191.570  1.00  0.00     0.217 HD
ENDBRANCH   4   9
BRANCH   7  11
HETATM   11  C16         0      37.622  12.558 197.390  1.00  0.00     0.015 C 
HETATM   12  C24         0      38.644  12.492 198.273  1.00  0.00     0.051 C 
BRANCH  12  13
HETATM   13  C20         0      38.484  12.976 199.729  1.00  0.00     0.156 C 
HETATM   14  O5          0      38.197  12.150 200.605  1.00  0.00    -0.293 OA
BRANCH  13  15
HETATM   15  C9          0      38.675  14.495 200.121  1.00  0.00     0.165 C 
BRANCH  15  16
HETATM   16  C21         0      39.456  15.369 199.060  1.00  0.00     0.156 C 
HETATM   17  O6          0      40.636  15.677 199.270  1.00  0.00    -0.293 OA
BRANCH  16  18
HETATM   18  C25         0      38.781  15.852 197.760  1.00  0.00     0.051 C 
HETATM   19  C17         0      39.367  15.675 196.553  1.00  0.00     0.015 C 
BRANCH  19  20
HETATM   20  C8          0      38.747  16.131 195.223  1.00  0.00    -0.033 A 
HETATM   21  C15         0      39.183  17.380 194.564  1.00  0.00     0.014 A 
HETATM   22  C23         0      38.636  17.766 193.404  1.00  0.00     0.040 A 
HETATM   23  C19         0      37.588  16.957 192.761  1.00  0.00     0.099 A 
HETATM   24  C13         0      37.180  15.829 193.337  1.00  0.00     0.102 A 
HETATM   25  C11         0      37.791  15.394 194.635  1.00  0.00     0.051 A 
BRANCH  23  26
HETATM   26  O4          0      37.011  17.360 191.545  1.00  0.00    -0.358 OA
HETATM   27  H41         0      37.549  18.084 191.135  1.00  0.00     0.217 HD
ENDBRANCH  23  26
BRANCH  24  28
HETATM   28  O2          0      36.173  15.075 192.695  1.00  0.00    -0.353 OA
HETATM   29  C27         0      34.928  15.151 193.393  1.00  0.00     0.210 C 
ENDBRANCH  24  28
ENDBRANCH  19  20
ENDBRANCH  16  18
ENDBRANCH  15  16
ENDBRANCH  13  15
ENDBRANCH  12  13
ENDBRANCH   7  11
ENDBRANCH   1   3
TORSDOF 10
ENDMDL
MODEL 2
REMARK VINA RESULT:    -4.100      3.394      6.259
REMARK INTER + INTRA:         -12.253
REMARK INTER:                  -8.292
REMARK INTRA:                  -3.961
REMARK UNBOUND:                -4.078
REMARK  10 active torsions:
REMARK  status: ('A' for Active; 'I' for Inactive)
REMARK    1  A    between atoms: O1_1  and  C31_31 
REMARK    2  A    between atoms: O1_1  and  C21_21 
REMARK    3  A    between atoms: O3_3  and  C41_41 
REMARK    4  A    between atoms: O4_4  and  C43_43 
REMARK    5  A    between atoms: C18_18  and  C25_25 
REMARK    6  A    between atoms: C25_25  and  C28_28 
REMARK    7  A    between atoms: C28_28  and  C30_30 
REMARK    8  A    between atoms: C30_30  and  C32_32 
REMARK    9  A    between atoms: C31_31  and  C33_33 
REMARK   10  A    between atoms: C35_35  and  C38_38 
ROOT
HETATM    1  O1  UNK     0      36.040  10.840 193.309  1.00  0.00    -0.312 OA
ENDROOT
BRANCH   1   2
HETATM    2  C31 UNK     0      36.773   9.557 192.730  1.00  0.00     0.283 C 
HETATM    3  O2  UNK     0      36.111   8.762 192.056  1.00  0.00    -0.260 OA
BRANCH   2   4
HETATM    4  C33 UNK     0      38.403   9.241 192.895  1.00  0.00     0.083 C 
HETATM    5  C35 UNK     0      39.373   9.780 192.062  1.00  0.00     0.017 C 
BRANCH   5   6
HETATM    6  C38 UNK     0      41.019   9.667 192.124  1.00  0.00    -0.033 A 
HETATM    7  C39 UNK     0      41.786  10.406 191.282  1.00  0.00     0.051 A 
HETATM    8  C41 UNK     0      43.323  10.359 191.333  1.00  0.00     0.102 A 
HETATM    9  C43 UNK     0      43.933   9.622 192.253  1.00  0.00     0.099 A 
HETATM   10  C42 UNK     0      43.110   8.806 193.180  1.00  0.00     0.040 A 
HETATM   11  C40 UNK     0      41.758   8.825 193.131  1.00  0.00     0.014 A 
BRANCH   8  12
HETATM   12  O3  UNK     0      44.150  11.115 190.455  1.00  0.00    -0.353 OA
HETATM   13  C44 UNK     0      43.398  11.889 189.526  1.00  0.00     0.210 C 
ENDBRANCH   8  12
BRANCH   9  14
HETATM   14  O4  UNK     0      45.363   9.610 192.290  1.00  0.00    -0.358 OA
HETATM   15  H99 UNK     0      45.706   9.876 193.181  1.00  0.00     0.217 HD
ENDBRANCH   9  14
ENDBRANCH   5   6
ENDBRANCH   2   4
ENDBRANCH   1   2
BRANCH   1  16
HETATM   16  C21 UNK     0      36.718  11.834 194.451  1.00  0.00     0.140 C 
HETATM   17  C17 UNK     0      35.858  11.813 195.859  1.00  0.00    -0.017 C 
HETATM   18  C9  UNK     0      36.568  12.755 197.066  1.00  0.00     0.005 C 
HETATM   19  C27 UNK     0      34.415  12.291 195.544  1.00  0.00     0.018 C 
HETATM   20  C26 UNK     0      35.772  10.363 196.370  1.00  0.00     0.018 C 
HETATM   21  C6  UNK     0      36.765  14.248 196.644  1.00  0.00    -0.027 A 
HETATM   22  C15 UNK     0      35.705  12.747 198.408  1.00  0.00     0.007 C 
HETATM   23  C5  UNK     0      37.081  15.372 197.814  1.00  0.00    -0.027 A 
HETATM   24  C7  UNK     0      35.713  15.142 196.805  1.00  0.00     0.021 A 
HETATM   25  C13 UNK     0      37.544  14.300 195.253  1.00  0.00     0.013 C 
HETATM   26  C8  UNK     0      36.360  15.182 199.217  1.00  0.00     0.004 C 
HETATM   27  C11 UNK     0      37.224  16.942 197.512  1.00  0.00     0.011 C 
HETATM   28  C10 UNK     0      37.090  16.079 200.403  1.00  0.00    -0.032 C 
HETATM   29  C14 UNK     0      36.346  13.639 199.563  1.00  0.00     0.007 C 
HETATM   30  C19 UNK     0      36.339  16.120 201.795  1.00  0.00     0.011 C 
HETATM   31  C23 UNK     0      38.542  15.541 200.610  1.00  0.00     0.016 C 
HETATM   32  C12 UNK     0      37.140  17.609 200.069  1.00  0.00    -0.032 C 
HETATM   33  C22 UNK     0      36.690  17.578 202.450  1.00  0.00     0.006 C 
HETATM   34  C18 UNK     0      37.739  18.234 201.494  1.00  0.00    -0.002 C 
HETATM   35  C16 UNK     0      37.953  17.759 198.718  1.00  0.00     0.011 C 
HETATM   36  C24 UNK     0      35.707  18.188 199.874  1.00  0.00     0.016 C 
HETATM   37  C20 UNK     0      36.809  13.394 194.069  1.00  0.00     0.034 C 
BRANCH  34  38
HETATM   38  C25 UNK     0      37.871  19.880 201.698  1.00  0.00    -0.014 C 
HETATM   39  C29 UNK     0      38.971  20.455 200.783  1.00  0.00     0.010 C 
BRANCH  38  40
HETATM   40  C28 UNK     0      38.230  20.336 203.198  1.00  0.00     0.008 C 
BRANCH  40  41
HETATM   41  C30 UNK     0      39.751  19.949 203.556  1.00  0.00     0.028 C 
BRANCH  41  42
HETATM   42  C32 UNK     0      39.905  18.555 204.214  1.00  0.00    -0.025 C 
HETATM   43  C34 UNK     0      40.569  17.548 203.612  1.00  0.00    -0.091 C 
HETATM   44  C36 UNK     0      40.708  16.208 204.300  1.00  0.00     0.042 C 
HETATM   45  C37 UNK     0      41.183  17.730 202.247  1.00  0.00     0.042 C 
ENDBRANCH  41  42
ENDBRANCH  40  41
ENDBRANCH  38  40
ENDBRANCH  34  38
ENDBRANCH   1  16
TORSDOF 10
REMARK  10 active torsions:
REMARK  status: ('A' for Active; 'I' for Inactive)
REMARK    1  A    between atoms: O1_1  and  C12_12 
REMARK    2  A    between atoms: O2_2  and  C13_13 
REMARK    3  A    between atoms: O3_3  and  C18_18 
REMARK    4  A    between atoms: O4_4  and  C19_19 
REMARK    5  A    between atoms: C7_7  and  C16_16 
REMARK    6  A    between atoms: C8_8  and  C17_17 
REMARK    7  A    between atoms: C9_9  and  C21_21 
REMARK    8  A    between atoms: C9_9  and  C20_20 
REMARK    9  A    between atoms: C20_20  and  C24_24 
REMARK   10  A    between atoms: C21_21  and  C25_25 
ROOT
HETATM    1  O1          0      44.669  12.928 193.911  1.00  0.00    -0.353 OA
HETATM    2  C26         0      45.037  12.027 194.957  1.00  0.00     0.210 C 
ENDROOT
BRANCH   1   3
HETATM    3  C12         0      43.268  13.002 193.751  1.00  0.00     0.102 A 
HETATM    4  C18         0      42.782  13.774 192.784  1.00  0.00     0.099 A 
HETATM    5  C22         0      41.327  13.873 192.591  1.00  0.00     0.040 A 
HETATM    6  C14         0      40.485  13.192 193.379  1.00  0.00     0.014 A 
HETATM    7  C7          0      40.999  12.326 194.460  1.00  0.00    -0.033 A 
HETATM    8  C10         0      42.328  12.237 194.634  1.00  0.00     0.051 A 
BRANCH   4   9
HETATM    9  O3          0      43.668  14.489 191.959  1.00  0.00    -0.358 OA
HETATM   10  H40         0      43.846  15.384 192.344  1.00  0.00     0.217 HD
ENDBRANCH   4   9
BRANCH   7  11
HETATM   11  C16         0      40.046  11.539 195.372  1.00  0.00     0.015 C 
HETATM   12  C24         0      40.434  10.518 196.170  1.00  0.00     0.051 C 
BRANCH  12  13
HETATM   13  C20         0      39.426   9.766 197.063  1.00  0.00     0.156 C 
HETATM   14  O5          0      39.011   8.660 196.695  1.00  0.00    -0.293 OA
BRANCH  13  15
HETATM   15  C9          0      38.915  10.377 198.429  1.00  0.00     0.165 C 
BRANCH  15  16
HETATM   16  C21         0      39.853  11.481 199.063  1.00  0.00     0.156 C 
HETATM   17  O6          0      40.619  11.177 199.985  1.00  0.00    -0.293 OA
BRANCH  16  18
HETATM   18  C25         0      39.837  12.938 198.558  1.00  0.00     0.051 C 
HETATM   19  C17         0      40.982  13.588 198.243  1.00  0.00     0.015 C 
BRANCH  19  20
HETATM   20  C8          0      41.034  15.037 197.736  1.00  0.00    -0.033 A 
HETATM   21  C15         0      40.579  15.389 196.375  1.00  0.00     0.014 A 
HETATM   22  C23         0      40.629  16.657 195.945  1.00  0.00     0.040 A 
HETATM   23  C19         0      41.140  17.726 196.816  1.00  0.00     0.099 A 
HETATM   24  C13         0      41.556  17.433 198.045  1.00  0.00     0.102 A 
HETATM   25  C11         0      41.501  16.015 198.530  1.00  0.00     0.051 A 
BRANCH  23  26
HETATM   26  O4          0      41.195  19.057 196.368  1.00  0.00    -0.358 OA
HETATM   27  H41         0      40.388  19.271 195.836  1.00  0.00     0.217 HD
ENDBRANCH  23  26
BRANCH  24  28
HETATM   28  O2          0      42.041  18.481 198.858  1.00  0.00    -0.353 OA
HETATM   29  C27         0      43.426  18.313 199.169  1.00  0.00     0.210 C 
ENDBRANCH  24  28
ENDBRANCH  19  20
ENDBRANCH  16  18
ENDBRANCH  15  16
ENDBRANCH  13  15
ENDBRANCH  12  13
ENDBRANCH   7  11
ENDBRANCH   1   3
TORSDOF 10
ENDMDL
MODEL 3
REMARK VINA RESULT:    -4.089      1.783      2.529
REMARK INTER + INTRA:         -12.232
REMARK INTER:                  -8.179
REMARK INTRA:                  -4.052
REMARK UNBOUND:                -4.078
REMARK  10 active torsions:
REMARK  status: ('A' for Active; 'I' for Inactive)
REMARK    1  A    between atoms: O1_1  and  C31_31 
REMARK    2  A    between atoms: O1_1  and  C21_21 
REMARK    3  A    between atoms: O3_3  and  C41_41 
REMARK    4  A    between atoms: O4_4  and  C43_43 
REMARK    5  A    between atoms: C18_18  and  C25_25 
REMARK    6  A    between atoms: C25_25  and  C28_28 
REMARK    7  A    between atoms: C28_28  and  C30_30 
REMARK    8  A    between atoms: C30_30  and  C32_32 
REMARK    9  A    between atoms: C31_31  and  C33_33 
REMARK   10  A    between atoms: C35_35  and  C38_38 
ROOT
HETATM    1  O1  UNK     0      34.038  11.607 200.737  1.00  0.00    -0.312 OA
ENDROOT
BRANCH   1   2
HETATM    2  C31 UNK     0      34.396  10.067 200.878  1.00  0.00     0.283 C 
HETATM    3  O2  UNK     0      33.578   9.326 201.432  1.00  0.00    -0.260 OA
BRANCH   2   4
HETATM    4  C33 UNK     0      35.768   9.352 200.255  1.00  0.00     0.083 C 
HETATM    5  C35 UNK     0      35.862   8.888 198.950  1.00  0.00     0.017 C 
BRANCH   5   6
HETATM    6  C38 UNK     0      37.145   8.250 198.131  1.00  0.00    -0.033 A 
HETATM    7  C39 UNK     0      37.030   7.941 196.815  1.00  0.00     0.051 A 
HETATM    8  C41 UNK     0      38.212   7.381 196.005  1.00  0.00     0.102 A 
HETATM    9  C43 UNK     0      39.400   7.239 196.581  1.00  0.00     0.099 A 
HETATM   10  C42 UNK     0      39.545   7.570 198.021  1.00  0.00     0.040 A 
HETATM   11  C40 UNK     0      38.506   8.045 198.745  1.00  0.00     0.014 A 
BRANCH   8  12
HETATM   12  O3  UNK     0      38.115   7.039 194.628  1.00  0.00    -0.353 OA
HETATM   13  C44 UNK     0      36.871   7.429 194.053  1.00  0.00     0.210 C 
ENDBRANCH   8  12
BRANCH   9  14
HETATM   14  O4  UNK     0      40.488   6.733 195.801  1.00  0.00    -0.358 OA
HETATM   15  H99 UNK     0      40.171   6.127 195.085  1.00  0.00     0.217 HD
ENDBRANCH   9  14
ENDBRANCH   5   6
ENDBRANCH   2   4
ENDBRANCH   1   2
BRANCH   1  16
HETATM   16  C21 UNK     0      35.138  12.754 200.261  1.00  0.00     0.140 C 
HETATM   17  C17 UNK     0      35.363  13.899 201.429  1.00  0.00    -0.017 C 
HETATM   18  C9  UNK     0      36.535  15.035 201.004  1.00  0.00     0.005 C 
HETATM   19  C27 UNK     0      33.992  14.574 201.704  1.00  0.00     0.018 C 
HETATM   20  C26 UNK     0      35.815  13.205 202.727  1.00  0.00     0.018 C 
HETATM   21  C6  UNK     0      36.218  15.772 199.661  1.00  0.00    -0.027 A 
HETATM   22  C15 UNK     0      36.714  16.151 202.131  1.00  0.00     0.007 C 
HETATM   23  C5  UNK     0      37.040  17.160 199.301  1.00  0.00    -0.027 A 
HETATM   24  C7  UNK     0      35.389  16.888 199.681  1.00  0.00     0.021 A 
HETATM   25  C13 UNK     0      35.938  14.690 198.525  1.00  0.00     0.013 C 
HETATM   26  C8  UNK     0      37.391  18.131 200.508  1.00  0.00     0.004 C 
HETATM   27  C11 UNK     0      36.746  18.044 197.993  1.00  0.00     0.011 C 
HETATM   28  C10 UNK     0      38.572  19.217 200.094  1.00  0.00    -0.032 C 
HETATM   29  C14 UNK     0      37.808  17.246 201.752  1.00  0.00     0.007 C 
HETATM   30  C19 UNK     0      38.861  20.356 201.154  1.00  0.00     0.011 C 
HETATM   31  C23 UNK     0      39.889  18.430 199.801  1.00  0.00     0.016 C 
HETATM   32  C12 UNK     0      38.192  20.086 198.848  1.00  0.00    -0.032 C 
HETATM   33  C22 UNK     0      39.342  21.658 200.289  1.00  0.00     0.006 C 
HETATM   34  C18 UNK     0      39.459  21.170 198.808  1.00  0.00    -0.002 C 
HETATM   35  C16 UNK     0      37.950  19.084 197.645  1.00  0.00     0.011 C 
HETATM   36  C24 UNK     0      36.891  20.902 199.108  1.00  0.00     0.016 C 
HETATM   37  C20 UNK     0      34.756  13.601 198.949  1.00  0.00     0.034 C 
BRANCH  34  38
HETATM   38  C25 UNK     0      39.463  22.415 197.706  1.00  0.00    -0.014 C 
HETATM   39  C29 UNK     0      39.632  21.872 196.272  1.00  0.00     0.010 C 
BRANCH  38  40
HETATM   40  C28 UNK     0      40.631  23.497 197.931  1.00  0.00     0.008 C 
BRANCH  40  41
HETATM   41  C30 UNK     0      42.061  22.877 197.528  1.00  0.00     0.028 C 
BRANCH  41  42
HETATM   42  C32 UNK     0      42.801  22.191 198.704  1.00  0.00    -0.025 C 
HETATM   43  C34 UNK     0      43.070  20.871 198.709  1.00  0.00    -0.091 C 
HETATM   44  C36 UNK     0      43.810  20.247 199.871  1.00  0.00     0.042 C 
HETATM   45  C37 UNK     0      42.641  19.987 197.564  1.00  0.00     0.042 C 
ENDBRANCH  41  42
ENDBRANCH  40  41
ENDBRANCH  38  40
ENDBRANCH  34  38
ENDBRANCH   1  16
TORSDOF 10
REMARK  10 active torsions:
REMARK  status: ('A' for Active; 'I' for Inactive)
REMARK    1  A    between atoms: O1_1  and  C12_12 
REMARK    2  A    between atoms: O2_2  and  C13_13 
REMARK    3  A    between atoms: O3_3  and  C18_18 
REMARK    4  A    between atoms: O4_4  and  C19_19 
REMARK    5  A    between atoms: C7_7  and  C16_16 
REMARK    6  A    between atoms: C8_8  and  C17_17 
REMARK    7  A    between atoms: C9_9  and  C21_21 
REMARK    8  A    between atoms: C9_9  and  C20_20 
REMARK    9  A    between atoms: C20_20  and  C24_24 
REMARK   10  A    between atoms: C21_21  and  C25_25 
ROOT
HETATM    1  O1          0      35.994  11.339 194.433  1.00  0.00    -0.353 OA
HETATM    2  C26         0      34.907  11.960 195.122  1.00  0.00     0.210 C 
ENDROOT
BRANCH   1   3
HETATM    3  C12         0      37.156  11.281 195.233  1.00  0.00     0.102 A 
HETATM    4  C18         0      38.299  10.912 194.662  1.00  0.00     0.099 A 
HETATM    5  C22         0      39.528  10.841 195.469  1.00  0.00     0.040 A 
HETATM    6  C14         0      39.509  11.146 196.772  1.00  0.00     0.014 A 
HETATM    7  C7          0      38.252  11.559 197.431  1.00  0.00    -0.033 A 
HETATM    8  C10         0      37.132  11.623 196.693  1.00  0.00     0.051 A 
BRANCH   4   9
HETATM    9  O3          0      38.316  10.592 193.294  1.00  0.00    -0.358 OA
HETATM   10  H40         0      39.239  10.380 193.004  1.00  0.00     0.217 HD
ENDBRANCH   4   9
BRANCH   7  11
HETATM   11  C16         0      38.215  11.911 198.926  1.00  0.00     0.015 C 
HETATM   12  C24         0      39.100  11.443 199.835  1.00  0.00     0.051 C 
BRANCH  12  13
HETATM   13  C20         0      39.007  11.835 201.325  1.00  0.00     0.156 C 
HETATM   14  O5          0      38.612  10.993 202.140  1.00  0.00    -0.293 OA
BRANCH  13  15
HETATM   15  C9          0      39.404  13.281 201.825  1.00  0.00     0.165 C 
BRANCH  15  16
HETATM   16  C21         0      40.480  14.027 200.938  1.00  0.00     0.156 C 
HETATM   17  O6          0      41.683  13.887 201.190  1.00  0.00    -0.293 OA
BRANCH  16  18
HETATM   18  C25         0      40.066  14.932 199.760  1.00  0.00     0.051 C 
HETATM   19  C17         0      40.401  14.627 198.485  1.00  0.00     0.015 C 
BRANCH  19  20
HETATM   20  C8          0      40.020  15.485 197.269  1.00  0.00    -0.033 A 
HETATM   21  C15         0      40.862  16.621 196.839  1.00  0.00     0.014 A 
HETATM   22  C23         0      40.519  17.361 195.776  1.00  0.00     0.040 A 
HETATM   23  C19         0      39.296  17.060 195.014  1.00  0.00     0.099 A 
HETATM   24  C13         0      38.523  16.043 195.383  1.00  0.00     0.102 A 
HETATM   25  C11         0      38.904  15.213 196.572  1.00  0.00     0.051 A 
BRANCH  23  26
HETATM   26  O4          0      38.933  17.835 193.899  1.00  0.00    -0.358 OA
HETATM   27  H41         0      37.996  18.142 193.988  1.00  0.00     0.217 HD
ENDBRANCH  23  26
BRANCH  24  28
HETATM   28  O2          0      37.356  15.780 194.632  1.00  0.00    -0.353 OA
HETATM   29  C27         0      37.496  14.605 193.830  1.00  0.00     0.210 C 
ENDBRANCH  24  28
ENDBRANCH  19  20
ENDBRANCH  16  18
ENDBRANCH  15  16
ENDBRANCH  13  15
ENDBRANCH  12  13
ENDBRANCH   7  11
ENDBRANCH   1   3
TORSDOF 10
ENDMDL
MODEL 4
REMARK VINA RESULT:    -4.046      4.244      9.314
REMARK INTER + INTRA:         -12.146
REMARK INTER:                  -8.114
REMARK INTRA:                  -4.032
REMARK UNBOUND:                -4.078
REMARK  10 active torsions:
REMARK  status: ('A' for Active; 'I' for Inactive)
REMARK    1  A    between atoms: O1_1  and  C31_31 
REMARK    2  A    between atoms: O1_1  and  C21_21 
REMARK    3  A    between atoms: O3_3  and  C41_41 
REMARK    4  A    between atoms: O4_4  and  C43_43 
REMARK    5  A    between atoms: C18_18  and  C25_25 
REMARK    6  A    between atoms: C25_25  and  C28_28 
REMARK    7  A    between atoms: C28_28  and  C30_30 
REMARK    8  A    between atoms: C30_30  and  C32_32 
REMARK    9  A    between atoms: C31_31  and  C33_33 
REMARK   10  A    between atoms: C35_35  and  C38_38 
ROOT
HETATM    1  O1  UNK     0      43.391  16.749 197.222  1.00  0.00    -0.312 OA
ENDROOT
BRANCH   1   2
HETATM    2  C31 UNK     0      44.574  17.763 196.920  1.00  0.00     0.283 C 
HETATM    3  O2  UNK     0      45.270  18.146 197.865  1.00  0.00    -0.260 OA
BRANCH   2   4
HETATM    4  C33 UNK     0      45.005  18.290 195.396  1.00  0.00     0.083 C 
HETATM    5  C35 UNK     0      45.237  17.433 194.329  1.00  0.00     0.017 C 
BRANCH   5   6
HETATM    6  C38 UNK     0      45.572  17.762 192.747  1.00  0.00    -0.033 A 
HETATM    7  C39 UNK     0      45.410  19.019 192.261  1.00  0.00     0.051 A 
HETATM    8  C41 UNK     0      45.748  19.376 190.803  1.00  0.00     0.102 A 
HETATM    9  C43 UNK     0      46.261  18.454 189.998  1.00  0.00     0.099 A 
HETATM   10  C42 UNK     0      46.444  17.073 190.511  1.00  0.00     0.040 A 
HETATM   11  C40 UNK     0      46.132  16.745 191.786  1.00  0.00     0.014 A 
BRANCH   8  12
HETATM   12  O3  UNK     0      45.576  20.683 190.266  1.00  0.00    -0.353 OA
HETATM   13  C44 UNK     0      44.255  21.182 190.453  1.00  0.00     0.210 C 
ENDBRANCH   8  12
BRANCH   9  14
HETATM   14  O4  UNK     0      46.583  18.816 188.652  1.00  0.00    -0.358 OA
HETATM   15  H99 UNK     0      47.488  18.502 188.397  1.00  0.00     0.217 HD
ENDBRANCH   9  14
ENDBRANCH   5   6
ENDBRANCH   2   4
ENDBRANCH   1   2
BRANCH   1  16
HETATM   16  C21 UNK     0      42.002  16.681 196.317  1.00  0.00     0.140 C 
HETATM   17  C17 UNK     0      40.707  17.274 197.151  1.00  0.00    -0.017 C 
HETATM   18  C9  UNK     0      39.295  17.291 196.228  1.00  0.00     0.005 C 
HETATM   19  C27 UNK     0      40.535  16.419 198.436  1.00  0.00     0.018 C 
HETATM   20  C26 UNK     0      41.013  18.720 197.585  1.00  0.00     0.018 C 
HETATM   21  C6  UNK     0      38.907  15.880 195.675  1.00  0.00    -0.027 A 
HETATM   22  C15 UNK     0      38.049  17.837 197.062  1.00  0.00     0.007 C 
HETATM   23  C5  UNK     0      37.378  15.646 195.090  1.00  0.00    -0.027 A 
HETATM   24  C7  UNK     0      38.168  15.018 196.477  1.00  0.00     0.021 A 
HETATM   25  C13 UNK     0      40.159  15.254 194.913  1.00  0.00     0.013 C 
HETATM   26  C8  UNK     0      36.194  16.403 195.830  1.00  0.00     0.004 C 
HETATM   27  C11 UNK     0      36.841  14.226 194.570  1.00  0.00     0.011 C 
HETATM   28  C10 UNK     0      34.824  16.450 194.899  1.00  0.00    -0.032 C 
HETATM   29  C14 UNK     0      36.696  17.852 196.218  1.00  0.00     0.007 C 
HETATM   30  C19 UNK     0      33.526  17.006 195.612  1.00  0.00     0.011 C 
HETATM   31  C23 UNK     0      35.121  17.297 193.621  1.00  0.00     0.016 C 
HETATM   32  C12 UNK     0      34.323  15.026 194.479  1.00  0.00    -0.032 C 
HETATM   33  C22 UNK     0      32.266  16.230 194.914  1.00  0.00     0.006 C 
HETATM   34  C18 UNK     0      32.874  15.395 193.740  1.00  0.00    -0.002 C 
HETATM   35  C16 UNK     0      35.496  14.348 193.659  1.00  0.00     0.011 C 
HETATM   36  C24 UNK     0      33.997  14.155 195.729  1.00  0.00     0.016 C 
HETATM   37  C20 UNK     0      41.531  15.216 195.850  1.00  0.00     0.034 C 
BRANCH  34  38
HETATM   38  C25 UNK     0      31.869  14.181 193.211  1.00  0.00    -0.014 C 
HETATM   39  C29 UNK     0      30.728  14.757 192.348  1.00  0.00     0.010 C 
BRANCH  38  40
HETATM   40  C28 UNK     0      31.176  13.332 194.388  1.00  0.00     0.008 C 
BRANCH  40  41
HETATM   41  C30 UNK     0      31.603  11.783 194.292  1.00  0.00     0.028 C 
BRANCH  41  42
HETATM   42  C32 UNK     0      32.778  11.514 193.318  1.00  0.00    -0.025 C 
HETATM   43  C34 UNK     0      33.933  10.952 193.727  1.00  0.00    -0.091 C 
HETATM   44  C36 UNK     0      35.047  10.694 192.738  1.00  0.00     0.042 C 
HETATM   45  C37 UNK     0      34.142  10.571 195.171  1.00  0.00     0.042 C 
ENDBRANCH  41  42
ENDBRANCH  40  41
ENDBRANCH  38  40
ENDBRANCH  34  38
ENDBRANCH   1  16
TORSDOF 10
REMARK  10 active torsions:
REMARK  status: ('A' for Active; 'I' for Inactive)
REMARK    1  A    between atoms: O1_1  and  C12_12 
REMARK    2  A    between atoms: O2_2  and  C13_13 
REMARK    3  A    between atoms: O3_3  and  C18_18 
REMARK    4  A    between atoms: O4_4  and  C19_19 
REMARK    5  A    between atoms: C7_7  and  C16_16 
REMARK    6  A    between atoms: C8_8  and  C17_17 
REMARK    7  A    between atoms: C9_9  and  C21_21 
REMARK    8  A    between atoms: C9_9  and  C20_20 
REMARK    9  A    between atoms: C20_20  and  C24_24 
REMARK   10  A    between atoms: C21_21  and  C25_25 
ROOT
HETATM    1  O1          0      43.092  17.104 188.245  1.00  0.00    -0.353 OA
HETATM    2  C26         0      42.948  18.524 188.181  1.00  0.00     0.210 C 
ENDROOT
BRANCH   1   3
HETATM    3  C12         0      42.908  16.618 189.557  1.00  0.00     0.102 A 
HETATM    4  C18         0      43.153  15.332 189.796  1.00  0.00     0.099 A 
HETATM    5  C22         0      42.970  14.794 191.153  1.00  0.00     0.040 A 
HETATM    6  C14         0      42.560  15.585 192.153  1.00  0.00     0.014 A 
HETATM    7  C7          0      42.281  17.017 191.915  1.00  0.00    -0.033 A 
HETATM    8  C10         0      42.449  17.506 190.675  1.00  0.00     0.051 A 
BRANCH   4   9
HETATM    9  O3          0      43.583  14.505 188.745  1.00  0.00    -0.358 OA
HETATM   10  H40         0      43.078  13.653 188.752  1.00  0.00     0.217 HD
ENDBRANCH   4   9
BRANCH   7  11
HETATM   11  C16         0      41.810  17.936 193.051  1.00  0.00     0.015 C 
HETATM   12  C24         0      41.722  19.282 192.948  1.00  0.00     0.051 C 
BRANCH  12  13
HETATM   13  C20         0      41.241  20.151 194.129  1.00  0.00     0.156 C 
HETATM   14  O5          0      42.084  20.698 194.850  1.00  0.00    -0.293 OA
BRANCH  13  15
HETATM   15  C9          0      39.703  20.353 194.433  1.00  0.00     0.165 C 
BRANCH  15  16
HETATM   16  C21         0      38.730  20.007 193.236  1.00  0.00     0.156 C 
HETATM   17  O6          0      38.269  20.919 192.538  1.00  0.00    -0.293 OA
BRANCH  16  18
HETATM   18  C25         0      38.337  18.551 192.912  1.00  0.00     0.051 C 
HETATM   19  C17         0      38.430  18.058 191.655  1.00  0.00     0.015 C 
BRANCH  19  20
HETATM   20  C8          0      38.055  16.619 191.267  1.00  0.00    -0.033 A 
HETATM   21  C15         0      38.924  15.479 191.625  1.00  0.00     0.014 A 
HETATM   22  C23         0      38.585  14.229 191.281  1.00  0.00     0.040 A 
HETATM   23  C19         0      37.342  13.964 190.540  1.00  0.00     0.099 A 
HETATM   24  C13         0      36.545  14.976 190.206  1.00  0.00     0.102 A 
HETATM   25  C11         0      36.921  16.376 190.589  1.00  0.00     0.051 A 
BRANCH  23  26
HETATM   26  O4          0      36.984  12.655 190.177  1.00  0.00    -0.358 OA
HETATM   27  H41         0      37.453  12.391 189.345  1.00  0.00     0.217 HD
ENDBRANCH  23  26
BRANCH  24  28
HETATM   28  O2          0      35.360  14.689 189.494  1.00  0.00    -0.353 OA
HETATM   29  C27         0      34.197  15.115 190.208  1.00  0.00     0.210 C 
ENDBRANCH  24  28
ENDBRANCH  19  20
ENDBRANCH  16  18
ENDBRANCH  15  16
ENDBRANCH  13  15
ENDBRANCH  12  13
ENDBRANCH   7  11
ENDBRANCH   1   3
TORSDOF 10
ENDMDL
MODEL 5
REMARK VINA RESULT:    -4.036      3.338      8.422
REMARK INTER + INTRA:         -12.126
REMARK INTER:                  -8.106
REMARK INTRA:                  -4.020
REMARK UNBOUND:                -4.078
REMARK  10 active torsions:
REMARK  status: ('A' for Active; 'I' for Inactive)
REMARK    1  A    between atoms: O1_1  and  C31_31 
REMARK    2  A    between atoms: O1_1  and  C21_21 
REMARK    3  A    between atoms: O3_3  and  C41_41 
REMARK    4  A    between atoms: O4_4  and  C43_43 
REMARK    5  A    between atoms: C18_18  and  C25_25 
REMARK    6  A    between atoms: C25_25  and  C28_28 
REMARK    7  A    between atoms: C28_28  and  C30_30 
REMARK    8  A    between atoms: C30_30  and  C32_32 
REMARK    9  A    between atoms: C31_31  and  C33_33 
REMARK   10  A    between atoms: C35_35  and  C38_38 
ROOT
HETATM    1  O1  UNK     0      43.357  18.540 194.795  1.00  0.00    -0.312 OA
ENDROOT
BRANCH   1   2
HETATM    2  C31 UNK     0      43.381  18.718 193.219  1.00  0.00     0.283 C 
HETATM    3  O2  UNK     0      44.466  18.933 192.671  1.00  0.00    -0.260 OA
BRANCH   2   4
HETATM    4  C33 UNK     0      42.049  18.551 192.226  1.00  0.00     0.083 C 
HETATM    5  C35 UNK     0      41.467  17.327 191.929  1.00  0.00     0.017 C 
BRANCH   5   6
HETATM    6  C38 UNK     0      40.109  16.971 191.061  1.00  0.00    -0.033 A 
HETATM    7  C39 UNK     0      39.694  15.684 190.939  1.00  0.00     0.051 A 
HETATM    8  C41 UNK     0      38.413  15.313 190.173  1.00  0.00     0.102 A 
HETATM    9  C43 UNK     0      37.652  16.269 189.653  1.00  0.00     0.099 A 
HETATM   10  C42 UNK     0      38.091  17.682 189.775  1.00  0.00     0.040 A 
HETATM   11  C40 UNK     0      39.226  18.016 190.431  1.00  0.00     0.014 A 
BRANCH   8  12
HETATM   12  O3  UNK     0      37.962  13.972 190.021  1.00  0.00    -0.353 OA
HETATM   13  C44 UNK     0      38.895  13.021 190.524  1.00  0.00     0.210 C 
ENDBRANCH   8  12
BRANCH   9  14
HETATM   14  O4  UNK     0      36.456  15.899 188.961  1.00  0.00    -0.358 OA
HETATM   15  H99 UNK     0      35.653  16.295 189.385  1.00  0.00     0.217 HD
ENDBRANCH   9  14
ENDBRANCH   5   6
ENDBRANCH   2   4
ENDBRANCH   1   2
BRANCH   1  16
HETATM   16  C21 UNK     0      41.972  18.654 195.701  1.00  0.00     0.140 C 
HETATM   17  C17 UNK     0      42.047  19.912 196.766  1.00  0.00    -0.017 C 
HETATM   18  C9  UNK     0      40.621  20.101 197.647  1.00  0.00     0.005 C 
HETATM   19  C27 UNK     0      43.263  19.672 197.702  1.00  0.00     0.018 C 
HETATM   20  C26 UNK     0      42.305  21.213 195.985  1.00  0.00     0.018 C 
HETATM   21  C6  UNK     0      40.216  18.818 198.444  1.00  0.00    -0.027 A 
HETATM   22  C15 UNK     0      40.725  21.301 198.693  1.00  0.00     0.007 C 
HETATM   23  C5  UNK     0      39.084  18.947 199.641  1.00  0.00    -0.027 A 
HETATM   24  C7  UNK     0      40.763  18.603 199.704  1.00  0.00     0.021 A 
HETATM   25  C13 UNK     0      40.192  17.571 197.451  1.00  0.00     0.013 C 
HETATM   26  C8  UNK     0      39.094  20.276 200.510  1.00  0.00     0.004 C 
HETATM   27  C11 UNK     0      38.646  17.719 200.578  1.00  0.00     0.011 C 
HETATM   28  C10 UNK     0      37.673  20.474 201.339  1.00  0.00    -0.032 C 
HETATM   29  C14 UNK     0      39.395  21.496 199.549  1.00  0.00     0.007 C 
HETATM   30  C19 UNK     0      37.647  21.659 202.387  1.00  0.00     0.011 C 
HETATM   31  C23 UNK     0      36.518  20.666 200.305  1.00  0.00     0.016 C 
HETATM   32  C12 UNK     0      37.341  19.265 202.278  1.00  0.00    -0.032 C 
HETATM   33  C22 UNK     0      36.626  21.184 203.574  1.00  0.00     0.006 C 
HETATM   34  C18 UNK     0      35.998  19.838 203.084  1.00  0.00    -0.002 C 
HETATM   35  C16 UNK     0      37.241  17.980 201.357  1.00  0.00     0.011 C 
HETATM   36  C24 UNK     0      38.462  19.053 203.338  1.00  0.00     0.016 C 
HETATM   37  C20 UNK     0      41.618  17.382 196.619  1.00  0.00     0.034 C 
BRANCH  34  38
HETATM   38  C25 UNK     0      35.314  18.950 204.313  1.00  0.00    -0.014 C 
HETATM   39  C29 UNK     0      34.675  17.659 203.760  1.00  0.00     0.010 C 
BRANCH  38  40
HETATM   40  C28 UNK     0      34.166  19.721 205.131  1.00  0.00     0.008 C 
BRANCH  40  41
HETATM   41  C30 UNK     0      32.836  19.867 204.235  1.00  0.00     0.028 C 
BRANCH  41  42
HETATM   42  C32 UNK     0      32.785  21.168 203.395  1.00  0.00    -0.025 C 
HETATM   43  C34 UNK     0      32.801  21.152 202.047  1.00  0.00    -0.091 C 
HETATM   44  C36 UNK     0      32.733  22.446 201.268  1.00  0.00     0.042 C 
HETATM   45  C37 UNK     0      32.887  19.851 201.288  1.00  0.00     0.042 C 
ENDBRANCH  41  42
ENDBRANCH  40  41
ENDBRANCH  38  40
ENDBRANCH  34  38
ENDBRANCH   1  16
TORSDOF 10
REMARK  10 active torsions:
REMARK  status: ('A' for Active; 'I' for Inactive)
REMARK    1  A    between atoms: O1_1  and  C12_12 
REMARK    2  A    between atoms: O2_2  and  C13_13 
REMARK    3  A    between atoms: O3_3  and  C18_18 
REMARK    4  A    between atoms: O4_4  and  C19_19 
REMARK    5  A    between atoms: C7_7  and  C16_16 
REMARK    6  A    between atoms: C8_8  and  C17_17 
REMARK    7  A    between atoms: C9_9  and  C21_21 
REMARK    8  A    between atoms: C9_9  and  C20_20 
REMARK    9  A    between atoms: C20_20  and  C24_24 
REMARK   10  A    between atoms: C21_21  and  C25_25 
ROOT
HETATM    1  O1          0      36.978  14.580 197.933  1.00  0.00    -0.353 OA
HETATM    2  C26         0      38.300  14.685 198.464  1.00  0.00     0.210 C 
ENDROOT
BRANCH   1   3
HETATM    3  C12         0      36.250  15.779 198.095  1.00  0.00     0.102 A 
HETATM    4  C18         0      35.303  15.823 199.028  1.00  0.00     0.099 A 
HETATM    5  C22         0      34.527  17.058 199.222  1.00  0.00     0.040 A 
HETATM    6  C14         0      34.765  18.140 198.470  1.00  0.00     0.014 A 
HETATM    7  C7          0      35.812  18.118 197.428  1.00  0.00    -0.033 A 
HETATM    8  C10         0      36.519  16.990 197.253  1.00  0.00     0.051 A 
BRANCH   4   9
HETATM    9  O3          0      35.055  14.685 199.814  1.00  0.00    -0.358 OA
HETATM   10  H40         0      34.949  13.887 199.237  1.00  0.00     0.217 HD
ENDBRANCH   4   9
BRANCH   7  11
HETATM   11  C16         0      36.097  19.352 196.558  1.00  0.00     0.015 C 
HETATM   12  C24         0      37.039  20.278 196.845  1.00  0.00     0.051 C 
BRANCH  12  13
HETATM   13  C20         0      37.276  21.497 195.929  1.00  0.00     0.156 C 
HETATM   14  O5          0      36.323  22.242 195.668  1.00  0.00    -0.293 OA
BRANCH  13  15
HETATM   15  C9          0      38.701  21.810 195.321  1.00  0.00     0.165 C 
BRANCH  15  16
HETATM   16  C21         0      39.070  20.991 194.020  1.00  0.00     0.156 C 
HETATM   17  O6          0      39.917  21.437 193.236  1.00  0.00    -0.293 OA
BRANCH  16  18
HETATM   18  C25         0      38.397  19.641 193.698  1.00  0.00     0.051 C 
HETATM   19  C17         0      38.785  18.497 194.307  1.00  0.00     0.015 C 
BRANCH  19  20
HETATM   20  C8          0      38.156  17.122 194.032  1.00  0.00    -0.033 A 
HETATM   21  C15         0      38.807  15.877 194.489  1.00  0.00     0.014 A 
HETATM   22  C23         0      38.248  14.685 194.243  1.00  0.00     0.040 A 
HETATM   23  C19         0      36.974  14.588 193.513  1.00  0.00     0.099 A 
HETATM   24  C13         0      36.370  15.696 193.092  1.00  0.00     0.102 A 
HETATM   25  C11         0      36.994  17.032 193.365  1.00  0.00     0.051 A 
BRANCH  23  26
HETATM   26  O4          0      36.385  13.339 193.254  1.00  0.00    -0.358 OA
HETATM   27  H41         0      36.065  12.931 194.097  1.00  0.00     0.217 HD
ENDBRANCH  23  26
BRANCH  24  28
HETATM   28  O2          0      35.149  15.571 192.395  1.00  0.00    -0.353 OA
HETATM   29  C27         0      34.047  16.063 193.162  1.00  0.00     0.210 C 
ENDBRANCH  24  28
ENDBRANCH  19  20
ENDBRANCH  16  18
ENDBRANCH  15  16
ENDBRANCH  13  15
ENDBRANCH  12  13
ENDBRANCH   7  11
ENDBRANCH   1   3
TORSDOF 10
ENDMDL
MODEL 6
REMARK VINA RESULT:    -4.001      2.673      9.998
REMARK INTER + INTRA:         -12.055
REMARK INTER:                  -8.206
REMARK INTRA:                  -3.849
REMARK UNBOUND:                -4.078
REMARK  10 active torsions:
REMARK  status: ('A' for Active; 'I' for Inactive)
REMARK    1  A    between atoms: O1_1  and  C31_31 
REMARK    2  A    between atoms: O1_1  and  C21_21 
REMARK    3  A    between atoms: O3_3  and  C41_41 
REMARK    4  A    between atoms: O4_4  and  C43_43 
REMARK    5  A    between atoms: C18_18  and  C25_25 
REMARK    6  A    between atoms: C25_25  and  C28_28 
REMARK    7  A    between atoms: C28_28  and  C30_30 
REMARK    8  A    between atoms: C30_30  and  C32_32 
REMARK    9  A    between atoms: C31_31  and  C33_33 
REMARK   10  A    between atoms: C35_35  and  C38_38 
ROOT
HETATM    1  O1  UNK     0      37.982  16.411 191.293  1.00  0.00    -0.312 OA
ENDROOT
BRANCH   1   2
HETATM    2  C31 UNK     0      37.145  17.715 190.952  1.00  0.00     0.283 C 
HETATM    3  O2  UNK     0      37.044  18.051 189.767  1.00  0.00    -0.260 OA
BRANCH   2   4
HETATM    4  C33 UNK     0      36.312  18.628 192.074  1.00  0.00     0.083 C 
HETATM    5  C35 UNK     0      36.934  19.449 193.003  1.00  0.00     0.017 C 
BRANCH   5   6
HETATM    6  C38 UNK     0      36.291  20.488 194.113  1.00  0.00    -0.033 A 
HETATM    7  C39 UNK     0      34.948  20.675 194.175  1.00  0.00     0.051 A 
HETATM    8  C41 UNK     0      34.305  21.604 195.219  1.00  0.00     0.102 A 
HETATM    9  C43 UNK     0      35.065  22.207 196.125  1.00  0.00     0.099 A 
HETATM   10  C42 UNK     0      36.536  22.016 196.072  1.00  0.00     0.040 A 
HETATM   11  C40 UNK     0      37.112  21.216 195.145  1.00  0.00     0.014 A 
BRANCH   8  12
HETATM   12  O3  UNK     0      32.902  21.827 195.299  1.00  0.00    -0.353 OA
HETATM   13  C44 UNK     0      32.168  21.026 194.378  1.00  0.00     0.210 C 
ENDBRANCH   8  12
BRANCH   9  14
HETATM   14  O4  UNK     0      34.441  23.052 197.097  1.00  0.00    -0.358 OA
HETATM   15  H99 UNK     0      35.023  23.815 197.343  1.00  0.00     0.217 HD
ENDBRANCH   9  14
ENDBRANCH   5   6
ENDBRANCH   2   4
ENDBRANCH   1   2
BRANCH   1  16
HETATM   16  C21 UNK     0      37.900  15.638 192.759  1.00  0.00     0.140 C 
HETATM   17  C17 UNK     0      39.215  14.673 193.008  1.00  0.00    -0.017 C 
HETATM   18  C9  UNK     0      39.198  13.934 194.525  1.00  0.00     0.005 C 
HETATM   19  C27 UNK     0      39.258  13.621 191.866  1.00  0.00     0.018 C 
HETATM   20  C26 UNK     0      40.491  15.530 192.906  1.00  0.00     0.018 C 
HETATM   21  C6  UNK     0      37.915  13.075 194.775  1.00  0.00    -0.027 A 
HETATM   22  C15 UNK     0      40.460  12.980 194.734  1.00  0.00     0.007 C 
HETATM   23  C5  UNK     0      37.912  11.993 196.024  1.00  0.00    -0.027 A 
HETATM   24  C7  UNK     0      37.882  11.761 194.325  1.00  0.00     0.021 A 
HETATM   25  C13 UNK     0      36.625  13.966 194.485  1.00  0.00     0.013 C 
HETATM   26  C8  UNK     0      39.273  11.233 196.331  1.00  0.00     0.004 C 
HETATM   27  C11 UNK     0      36.686  11.003 196.330  1.00  0.00     0.011 C 
HETATM   28  C10 UNK     0      39.262  10.546 197.838  1.00  0.00    -0.032 C 
HETATM   29  C14 UNK     0      40.465  12.258 196.155  1.00  0.00     0.007 C 
HETATM   30  C19 UNK     0      40.486   9.600 198.172  1.00  0.00     0.011 C 
HETATM   31  C23 UNK     0      39.177  11.686 198.903  1.00  0.00     0.016 C 
HETATM   32  C12 UNK     0      38.074   9.546 198.045  1.00  0.00    -0.032 C 
HETATM   33  C22 UNK     0      39.908   8.471 199.205  1.00  0.00     0.006 C 
HETATM   34  C18 UNK     0      38.443   8.905 199.539  1.00  0.00    -0.002 C 
HETATM   35  C16 UNK     0      36.737  10.369 197.829  1.00  0.00     0.011 C 
HETATM   36  C24 UNK     0      38.134   8.382 197.012  1.00  0.00     0.016 C 
HETATM   37  C20 UNK     0      36.645  14.656 192.973  1.00  0.00     0.034 C 
BRANCH  34  38
HETATM   38  C25 UNK     0      37.524   7.672 200.174  1.00  0.00    -0.014 C 
HETATM   39  C29 UNK     0      36.116   8.180 200.545  1.00  0.00     0.010 C 
BRANCH  38  40
HETATM   40  C28 UNK     0      38.139   7.000 201.499  1.00  0.00     0.008 C 
BRANCH  40  41
HETATM   41  C30 UNK     0      38.017   8.006 202.750  1.00  0.00     0.028 C 
BRANCH  41  42
HETATM   42  C32 UNK     0      39.252   8.922 202.942  1.00  0.00    -0.025 C 
HETATM   43  C34 UNK     0      39.178  10.261 202.808  1.00  0.00    -0.091 C 
HETATM   44  C36 UNK     0      40.406  11.118 203.020  1.00  0.00     0.042 C 
HETATM   45  C37 UNK     0      37.878  10.935 202.444  1.00  0.00     0.042 C 
ENDBRANCH  41  42
ENDBRANCH  40  41
ENDBRANCH  38  40
ENDBRANCH  34  38
ENDBRANCH   1  16
TORSDOF 10
REMARK  10 active torsions:
REMARK  status: ('A' for Active; 'I' for Inactive)
REMARK    1  A    between atoms: O1_1  and  C12_12 
REMARK    2  A    between atoms: O2_2  and  C13_13 
REMARK    3  A    between atoms: O3_3  and  C18_18 
REMARK    4  A    between atoms: O4_4  and  C19_19 
REMARK    5  A    between atoms: C7_7  and  C16_16 
REMARK    6  A    between atoms: C8_8  and  C17_17 
REMARK    7  A    between atoms: C9_9  and  C21_21 
REMARK    8  A    between atoms: C9_9  and  C20_20 
REMARK    9  A    between atoms: C20_20  and  C24_24 
REMARK   10  A    between atoms: C21_21  and  C25_25 
ROOT
HETATM    1  O1          0      34.730  11.935 201.150  1.00  0.00    -0.353 OA
HETATM    2  C26         0      34.489  12.707 202.329  1.00  0.00     0.210 C 
ENDROOT
BRANCH   1   3
HETATM    3  C12         0      35.010  12.755 200.036  1.00  0.00     0.102 A 
HETATM    4  C18         0      34.146  12.764 199.024  1.00  0.00     0.099 A 
HETATM    5  C22         0      34.409  13.608 197.848  1.00  0.00     0.040 A 
HETATM    6  C14         0      35.509  14.369 197.784  1.00  0.00     0.014 A 
HETATM    7  C7          0      36.485  14.377 198.894  1.00  0.00    -0.033 A 
HETATM    8  C10         0      36.242  13.606 199.967  1.00  0.00     0.051 A 
BRANCH   4   9
HETATM    9  O3          0      32.993  11.964 199.094  1.00  0.00    -0.358 OA
HETATM   10  H40         0      32.787  11.583 198.204  1.00  0.00     0.217 HD
ENDBRANCH   4   9
BRANCH   7  11
HETATM   11  C16         0      37.751  15.244 198.835  1.00  0.00     0.015 C 
HETATM   12  C24         0      38.838  14.946 198.086  1.00  0.00     0.051 C 
BRANCH  12  13
HETATM   13  C20         0      40.081  15.860 198.070  1.00  0.00     0.156 C 
HETATM   14  O5          0      40.570  16.221 199.147  1.00  0.00    -0.293 OA
BRANCH  13  15
HETATM   15  C9          0      40.735  16.341 196.714  1.00  0.00     0.165 C 
BRANCH  15  16
HETATM   16  C21         0      40.039  17.589 196.038  1.00  0.00     0.156 C 
HETATM   17  O6          0      40.671  18.276 195.226  1.00  0.00    -0.293 OA
BRANCH  16  18
HETATM   18  C25         0      38.583  17.976 196.367  1.00  0.00     0.051 C 
HETATM   19  C17         0      37.537  17.284 195.858  1.00  0.00     0.015 C 
BRANCH  19  20
HETATM   20  C8          0      36.065  17.617 196.146  1.00  0.00    -0.033 A 
HETATM   21  C15         0      35.682  18.459 197.299  1.00  0.00     0.014 A 
HETATM   22  C23         0      34.395  18.743 197.539  1.00  0.00     0.040 A 
HETATM   23  C19         0      33.335  18.222 196.662  1.00  0.00     0.099 A 
HETATM   24  C13         0      33.656  17.461 195.618  1.00  0.00     0.102 A 
HETATM   25  C11         0      35.096  17.142 195.347  1.00  0.00     0.051 A 
BRANCH  23  26
HETATM   26  O4          0      31.983  18.517 196.911  1.00  0.00    -0.358 OA
HETATM   27  H41         0      31.433  18.283 196.122  1.00  0.00     0.217 HD
ENDBRANCH  23  26
BRANCH  24  28
HETATM   28  O2          0      32.616  16.977 194.796  1.00  0.00    -0.353 OA
HETATM   29  C27         0      32.714  17.486 193.463  1.00  0.00     0.210 C 
ENDBRANCH  24  28
ENDBRANCH  19  20
ENDBRANCH  16  18
ENDBRANCH  15  16
ENDBRANCH  13  15
ENDBRANCH  12  13
ENDBRANCH   7  11
ENDBRANCH   1   3
TORSDOF 10
ENDMDL
MODEL 7
REMARK VINA RESULT:    -3.986      3.232     10.022
REMARK INTER + INTRA:         -12.025
REMARK INTER:                  -7.928
REMARK INTRA:                  -4.098
REMARK UNBOUND:                -4.078
REMARK  10 active torsions:
REMARK  status: ('A' for Active; 'I' for Inactive)
REMARK    1  A    between atoms: O1_1  and  C31_31 
REMARK    2  A    between atoms: O1_1  and  C21_21 
REMARK    3  A    between atoms: O3_3  and  C41_41 
REMARK    4  A    between atoms: O4_4  and  C43_43 
REMARK    5  A    between atoms: C18_18  and  C25_25 
REMARK    6  A    between atoms: C25_25  and  C28_28 
REMARK    7  A    between atoms: C28_28  and  C30_30 
REMARK    8  A    between atoms: C30_30  and  C32_32 
REMARK    9  A    between atoms: C31_31  and  C33_33 
REMARK   10  A    between atoms: C35_35  and  C38_38 
ROOT
HETATM    1  O1  UNK     0      40.396  20.878 200.091  1.00  0.00    -0.312 OA
ENDROOT
BRANCH   1   2
HETATM    2  C31 UNK     0      40.486  22.400 199.650  1.00  0.00     0.283 C 
HETATM    3  O2  UNK     0      40.357  23.268 200.519  1.00  0.00    -0.260 OA
BRANCH   2   4
HETATM    4  C33 UNK     0      40.828  22.920 198.102  1.00  0.00     0.083 C 
HETATM    5  C35 UNK     0      41.770  22.313 197.283  1.00  0.00     0.017 C 
BRANCH   5   6
HETATM    6  C38 UNK     0      42.175  22.615 195.712  1.00  0.00    -0.033 A 
HETATM    7  C39 UNK     0      43.364  22.184 195.218  1.00  0.00     0.051 A 
HETATM    8  C41 UNK     0      43.763  22.409 193.750  1.00  0.00     0.102 A 
HETATM    9  C43 UNK     0      42.912  22.994 192.915  1.00  0.00     0.099 A 
HETATM   10  C42 UNK     0      41.608  23.473 193.437  1.00  0.00     0.040 A 
HETATM   11  C40 UNK     0      41.256  23.297 194.732  1.00  0.00     0.014 A 
BRANCH   8  12
HETATM   12  O3  UNK     0      45.007  21.978 193.210  1.00  0.00    -0.353 OA
HETATM   13  C44 UNK     0      45.845  21.367 194.186  1.00  0.00     0.210 C 
ENDBRANCH   8  12
BRANCH   9  14
HETATM   14  O4  UNK     0      43.300  23.176 191.550  1.00  0.00    -0.358 OA
HETATM   15  H99 UNK     0      43.076  24.085 191.226  1.00  0.00     0.217 HD
ENDBRANCH   9  14
ENDBRANCH   5   6
ENDBRANCH   2   4
ENDBRANCH   1   2
BRANCH   1  16
HETATM   16  C21 UNK     0      39.738  19.694 199.134  1.00  0.00     0.140 C 
HETATM   17  C17 UNK     0      38.439  18.981 199.859  1.00  0.00    -0.017 C 
HETATM   18  C9  UNK     0      37.700  17.826 198.876  1.00  0.00     0.005 C 
HETATM   19  C27 UNK     0      38.922  18.360 201.198  1.00  0.00     0.018 C 
HETATM   20  C26 UNK     0      37.396  20.065 200.192  1.00  0.00     0.018 C 
HETATM   21  C6  UNK     0      38.678  16.694 198.418  1.00  0.00    -0.027 A 
HETATM   22  C15 UNK     0      36.467  17.126 199.608  1.00  0.00     0.007 C 
HETATM   23  C5  UNK     0      38.047  15.303 197.786  1.00  0.00    -0.027 A 
HETATM   24  C7  UNK     0      38.886  15.601 199.252  1.00  0.00     0.021 A 
HETATM   25  C13 UNK     0      39.973  17.354 197.764  1.00  0.00     0.013 C 
HETATM   26  C8  UNK     0      36.685  14.774 198.411  1.00  0.00     0.004 C 
HETATM   27  C11 UNK     0      38.944  14.043 197.356  1.00  0.00     0.011 C 
HETATM   28  C10 UNK     0      35.947  13.671 197.419  1.00  0.00    -0.032 C 
HETATM   29  C14 UNK     0      35.757  16.020 198.706  1.00  0.00     0.007 C 
HETATM   30  C19 UNK     0      34.687  12.933 198.028  1.00  0.00     0.011 C 
HETATM   31  C23 UNK     0      35.541  14.390 196.093  1.00  0.00     0.016 C 
HETATM   32  C12 UNK     0      36.859  12.440 197.090  1.00  0.00    -0.032 C 
HETATM   33  C22 UNK     0      34.661  11.450 197.337  1.00  0.00     0.006 C 
HETATM   34  C18 UNK     0      35.795  11.459 196.260  1.00  0.00    -0.002 C 
HETATM   35  C16 UNK     0      38.157  13.005 196.379  1.00  0.00     0.011 C 
HETATM   36  C24 UNK     0      37.271  11.684 198.388  1.00  0.00     0.016 C 
HETATM   37  C20 UNK     0      40.705  18.463 198.762  1.00  0.00     0.034 C 
BRANCH  34  38
HETATM   38  C25 UNK     0      36.258   9.934 195.784  1.00  0.00    -0.014 C 
HETATM   39  C29 UNK     0      37.296  10.012 194.646  1.00  0.00     0.010 C 
BRANCH  38  40
HETATM   40  C28 UNK     0      35.054   9.012 195.250  1.00  0.00     0.008 C 
BRANCH  40  41
HETATM   41  C30 UNK     0      34.572   9.500 193.794  1.00  0.00     0.028 C 
BRANCH  41  42
HETATM   42  C32 UNK     0      33.412  10.527 193.828  1.00  0.00    -0.025 C 
HETATM   43  C34 UNK     0      33.567  11.797 193.401  1.00  0.00    -0.091 C 
HETATM   44  C36 UNK     0      32.402  12.760 193.438  1.00  0.00     0.042 C 
HETATM   45  C37 UNK     0      34.896  12.285 192.881  1.00  0.00     0.042 C 
ENDBRANCH  41  42
ENDBRANCH  40  41
ENDBRANCH  38  40
ENDBRANCH  34  38
ENDBRANCH   1  16
TORSDOF 10
REMARK  10 active torsions:
REMARK  status: ('A' for Active; 'I' for Inactive)
REMARK    1  A    between atoms: O1_1  and  C12_12 
REMARK    2  A    between atoms: O2_2  and  C13_13 
REMARK    3  A    between atoms: O3_3  and  C18_18 
REMARK    4  A    between atoms: O4_4  and  C19_19 
REMARK    5  A    between atoms: C7_7  and  C16_16 
REMARK    6  A    between atoms: C8_8  and  C17_17 
REMARK    7  A    between atoms: C9_9  and  C21_21 
REMARK    8  A    between atoms: C9_9  and  C20_20 
REMARK    9  A    between atoms: C20_20  and  C24_24 
REMARK   10  A    between atoms: C21_21  and  C25_25 
ROOT
HETATM    1  O1          0      43.333  19.178 191.370  1.00  0.00    -0.353 OA
HETATM    2  C26         0      42.519  19.901 190.444  1.00  0.00     0.210 C 
ENDROOT
BRANCH   1   3
HETATM    3  C12         0      42.743  19.120 192.651  1.00  0.00     0.102 A 
HETATM    4  C18         0      43.438  18.571 193.644  1.00  0.00     0.099 A 
HETATM    5  C22         0      42.851  18.495 194.991  1.00  0.00     0.040 A 
HETATM    6  C14         0      41.624  18.974 195.230  1.00  0.00     0.014 A 
HETATM    7  C7          0      40.831  19.589 194.145  1.00  0.00    -0.033 A 
HETATM    8  C10         0      41.369  19.658 192.917  1.00  0.00     0.051 A 
BRANCH   4   9
HETATM    9  O3          0      44.726  18.069 193.389  1.00  0.00    -0.358 OA
HETATM   10  H40         0      45.339  18.310 194.129  1.00  0.00     0.217 HD
ENDBRANCH   4   9
BRANCH   7  11
HETATM   11  C16         0      39.421  20.142 194.405  1.00  0.00     0.015 C 
HETATM   12  C24         0      38.942  20.445 195.633  1.00  0.00     0.051 C 
BRANCH  12  13
HETATM   13  C20         0      37.515  20.998 195.827  1.00  0.00     0.156 C 
HETATM   14  O5          0      37.265  22.150 195.452  1.00  0.00    -0.293 OA
BRANCH  13  15
HETATM   15  C9          0      36.375  20.128 196.491  1.00  0.00     0.165 C 
BRANCH  15  16
HETATM   16  C21         0      35.916  18.868 195.653  1.00  0.00     0.156 C 
HETATM   17  O6          0      34.772  18.828 195.185  1.00  0.00    -0.293 OA
BRANCH  16  18
HETATM   18  C25         0      36.865  17.678 195.403  1.00  0.00     0.051 C 
HETATM   19  C17         0      37.206  17.299 194.149  1.00  0.00     0.015 C 
BRANCH  19  20
HETATM   20  C8          0      38.144  16.125 193.832  1.00  0.00    -0.033 A 
HETATM   21  C15         0      37.646  14.905 193.164  1.00  0.00     0.014 A 
HETATM   22  C23         0      38.476  13.889 192.893  1.00  0.00     0.040 A 
HETATM   23  C19         0      39.900  13.964 193.254  1.00  0.00     0.099 A 
HETATM   24  C13         0      40.370  15.053 193.857  1.00  0.00     0.102 A 
HETATM   25  C11         0      39.445  16.192 194.162  1.00  0.00     0.051 A 
BRANCH  23  26
HETATM   26  O4          0      40.773  12.899 192.972  1.00  0.00    -0.358 OA
HETATM   27  H41         0      40.354  12.039 193.225  1.00  0.00     0.217 HD
ENDBRANCH  23  26
BRANCH  24  28
HETATM   28  O2          0      41.742  15.094 194.191  1.00  0.00    -0.353 OA
HETATM   29  C27         0      41.947  14.977 195.601  1.00  0.00     0.210 C 
ENDBRANCH  24  28
ENDBRANCH  19  20
ENDBRANCH  16  18
ENDBRANCH  15  16
ENDBRANCH  13  15
ENDBRANCH  12  13
ENDBRANCH   7  11
ENDBRANCH   1   3
TORSDOF 10
ENDMDL
MODEL 8
REMARK VINA RESULT:    -3.974      2.639      6.180
REMARK INTER + INTRA:         -12.002
REMARK INTER:                  -8.141
REMARK INTRA:                  -3.861
REMARK UNBOUND:                -4.078
REMARK  10 active torsions:
REMARK  status: ('A' for Active; 'I' for Inactive)
REMARK    1  A    between atoms: O1_1  and  C31_31 
REMARK    2  A    between atoms: O1_1  and  C21_21 
REMARK    3  A    between atoms: O3_3  and  C41_41 
REMARK    4  A    between atoms: O4_4  and  C43_43 
REMARK    5  A    between atoms: C18_18  and  C25_25 
REMARK    6  A    between atoms: C25_25  and  C28_28 
REMARK    7  A    between atoms: C28_28  and  C30_30 
REMARK    8  A    between atoms: C30_30  and  C32_32 
REMARK    9  A    between atoms: C31_31  and  C33_33 
REMARK   10  A    between atoms: C35_35  and  C38_38 
ROOT
HETATM    1  O1  UNK     0      37.454  11.683 201.576  1.00  0.00    -0.312 OA
ENDROOT
BRANCH   1   2
HETATM    2  C31 UNK     0      36.537  10.438 201.932  1.00  0.00     0.283 C 
HETATM    3  O2  UNK     0      36.566  10.003 203.087  1.00  0.00    -0.260 OA
BRANCH   2   4
HETATM    4  C33 UNK     0      35.464   9.718 200.875  1.00  0.00     0.083 C 
HETATM    5  C35 UNK     0      34.228  10.259 200.556  1.00  0.00     0.017 C 
BRANCH   5   6
HETATM    6  C38 UNK     0      33.086   9.755 199.475  1.00  0.00    -0.033 A 
HETATM    7  C39 UNK     0      33.296   8.640 198.730  1.00  0.00     0.051 A 
HETATM    8  C41 UNK     0      32.242   8.115 197.741  1.00  0.00     0.102 A 
HETATM    9  C43 UNK     0      31.068   8.726 197.638  1.00  0.00     0.099 A 
HETATM   10  C42 UNK     0      30.821   9.947 198.444  1.00  0.00     0.040 A 
HETATM   11  C40 UNK     0      31.750  10.428 199.302  1.00  0.00     0.014 A 
BRANCH   8  12
HETATM   12  O3  UNK     0      32.441   6.955 196.939  1.00  0.00    -0.353 OA
HETATM   13  C44 UNK     0      33.652   7.009 196.191  1.00  0.00     0.210 C 
ENDBRANCH   8  12
BRANCH   9  14
HETATM   14  O4  UNK     0      30.098   8.206 196.723  1.00  0.00    -0.358 OA
HETATM   15  H99 UNK     0      29.277   7.911 197.193  1.00  0.00     0.217 HD
ENDBRANCH   9  14
ENDBRANCH   5   6
ENDBRANCH   2   4
ENDBRANCH   1   2
BRANCH   1  16
HETATM   16  C21 UNK     0      37.764  12.166 200.020  1.00  0.00     0.140 C 
HETATM   17  C17 UNK     0      39.373  12.076 199.667  1.00  0.00    -0.017 C 
HETATM   18  C9  UNK     0      39.710  12.486 198.065  1.00  0.00     0.005 C 
HETATM   19  C27 UNK     0      40.131  12.999 200.660  1.00  0.00     0.018 C 
HETATM   20  C26 UNK     0      39.856  10.633 199.904  1.00  0.00     0.018 C 
HETATM   21  C6  UNK     0      39.212  13.918 197.681  1.00  0.00    -0.027 A 
HETATM   22  C15 UNK     0      41.274  12.424 197.754  1.00  0.00     0.007 C 
HETATM   23  C5  UNK     0      39.789  14.618 196.299  1.00  0.00    -0.027 A 
HETATM   24  C7  UNK     0      40.024  15.013 197.951  1.00  0.00     0.021 A 
HETATM   25  C13 UNK     0      37.670  14.056 198.064  1.00  0.00     0.013 C 
HETATM   26  C8  UNK     0      41.304  14.332 195.918  1.00  0.00     0.004 C 
HETATM   27  C11 UNK     0      39.412  16.110 195.843  1.00  0.00     0.011 C 
HETATM   28  C10 UNK     0      41.614  14.700 194.333  1.00  0.00    -0.032 C 
HETATM   29  C14 UNK     0      41.623  12.819 196.250  1.00  0.00     0.007 C 
HETATM   30  C19 UNK     0      43.134  14.640 193.897  1.00  0.00     0.011 C 
HETATM   31  C23 UNK     0      40.774  13.743 193.428  1.00  0.00     0.016 C 
HETATM   32  C12 UNK     0      41.280  16.187 193.974  1.00  0.00    -0.032 C 
HETATM   33  C22 UNK     0      43.304  15.756 192.713  1.00  0.00     0.006 C 
HETATM   34  C18 UNK     0      41.863  16.286 192.415  1.00  0.00    -0.002 C 
HETATM   35  C16 UNK     0      39.739  16.399 194.274  1.00  0.00     0.011 C 
HETATM   36  C24 UNK     0      42.114  17.175 194.844  1.00  0.00     0.016 C 
HETATM   37  C20 UNK     0      37.366  13.681 199.654  1.00  0.00     0.034 C 
BRANCH  34  38
HETATM   38  C25 UNK     0      41.855  17.739 191.606  1.00  0.00    -0.014 C 
HETATM   39  C29 UNK     0      42.952  18.673 192.156  1.00  0.00     0.010 C 
BRANCH  38  40
HETATM   40  C28 UNK     0      40.467  18.546 191.704  1.00  0.00     0.008 C 
BRANCH  40  41
HETATM   41  C30 UNK     0      40.661  19.900 192.552  1.00  0.00     0.028 C 
BRANCH  41  42
HETATM   42  C32 UNK     0      39.801  19.961 193.840  1.00  0.00    -0.025 C 
HETATM   43  C34 UNK     0      40.305  20.384 195.018  1.00  0.00    -0.091 C 
HETATM   44  C36 UNK     0      39.424  20.442 196.246  1.00  0.00     0.042 C 
HETATM   45  C37 UNK     0      41.748  20.804 195.139  1.00  0.00     0.042 C 
ENDBRANCH  41  42
ENDBRANCH  40  41
ENDBRANCH  38  40
ENDBRANCH  34  38
ENDBRANCH   1  16
TORSDOF 10
REMARK  10 active torsions:
REMARK  status: ('A' for Active; 'I' for Inactive)
REMARK    1  A    between atoms: O1_1  and  C12_12 
REMARK    2  A    between atoms: O2_2  and  C13_13 
REMARK    3  A    between atoms: O3_3  and  C18_18 
REMARK    4  A    between atoms: O4_4  and  C19_19 
REMARK    5  A    between atoms: C7_7  and  C16_16 
REMARK    6  A    between atoms: C8_8  and  C17_17 
REMARK    7  A    between atoms: C9_9  and  C21_21 
REMARK    8  A    between atoms: C9_9  and  C20_20 
REMARK    9  A    between atoms: C20_20  and  C24_24 
REMARK   10  A    between atoms: C21_21  and  C25_25 
ROOT
HETATM    1  O1          0      37.154  15.821 191.136  1.00  0.00    -0.353 OA
HETATM    2  C26         0      38.483  15.538 190.693  1.00  0.00     0.210 C 
ENDROOT
BRANCH   1   3
HETATM    3  C12         0      36.873  15.207 192.375  1.00  0.00     0.102 A 
HETATM    4  C18         0      36.251  15.922 193.309  1.00  0.00     0.099 A 
HETATM    5  C22         0      35.945  15.311 194.612  1.00  0.00     0.040 A 
HETATM    6  C14         0      36.284  14.041 194.869  1.00  0.00     0.014 A 
HETATM    7  C7          0      36.975  13.225 193.849  1.00  0.00    -0.033 A 
HETATM    8  C10         0      37.254  13.785 192.661  1.00  0.00     0.051 A 
BRANCH   4   9
HETATM    9  O3          0      35.897  17.254 193.036  1.00  0.00    -0.358 OA
HETATM   10  H40         0      35.123  17.282 192.419  1.00  0.00     0.217 HD
ENDBRANCH   4   9
BRANCH   7  11
HETATM   11  C16         0      37.370  11.768 194.130  1.00  0.00     0.015 C 
HETATM   12  C24         0      38.501  11.402 194.778  1.00  0.00     0.051 C 
BRANCH  12  13
HETATM   13  C20         0      38.841   9.919 195.028  1.00  0.00     0.156 C 
HETATM   14  O5          0      38.932   9.155 194.059  1.00  0.00    -0.293 OA
BRANCH  13  15
HETATM   15  C9          0      39.074   9.359 196.488  1.00  0.00     0.165 C 
BRANCH  15  16
HETATM   16  C21         0      37.758   8.985 197.282  1.00  0.00     0.156 C 
HETATM   17  O6          0      37.816   8.177 198.216  1.00  0.00    -0.293 OA
BRANCH  16  18
HETATM   18  C25         0      36.394   9.606 196.918  1.00  0.00     0.051 C 
HETATM   19  C17         0      36.063  10.860 197.306  1.00  0.00     0.015 C 
BRANCH  19  20
HETATM   20  C8          0      34.723  11.535 196.977  1.00  0.00    -0.033 A 
HETATM   21  C15         0      34.281  12.749 197.693  1.00  0.00     0.014 A 
HETATM   22  C23         0      33.110  13.329 197.396  1.00  0.00     0.040 A 
HETATM   23  C19         0      32.238  12.769 196.351  1.00  0.00     0.099 A 
HETATM   24  C13         0      32.616  11.675 195.694  1.00  0.00     0.102 A 
HETATM   25  C11         0      33.926  11.025 196.024  1.00  0.00     0.051 A 
BRANCH  23  26
HETATM   26  O4          0      31.009  13.374 196.037  1.00  0.00    -0.358 OA
HETATM   27  H41         0      30.710  13.947 196.787  1.00  0.00     0.217 HD
ENDBRANCH  23  26
BRANCH  24  28
HETATM   28  O2          0      31.757  11.163 194.697  1.00  0.00    -0.353 OA
HETATM   29  C27         0      32.186   9.879 194.238  1.00  0.00     0.210 C 
ENDBRANCH  24  28
ENDBRANCH  19  20
ENDBRANCH  16  18
ENDBRANCH  15  16
ENDBRANCH  13  15
ENDBRANCH  12  13
ENDBRANCH   7  11
ENDBRANCH   1   3
TORSDOF 10
ENDMDL
MODEL 9
REMARK VINA RESULT:    -3.959      4.387     10.342
REMARK INTER + INTRA:         -11.973
REMARK INTER:                  -8.117
REMARK INTRA:                  -3.855
REMARK UNBOUND:                -4.078
REMARK  10 active torsions:
REMARK  status: ('A' for Active; 'I' for Inactive)
REMARK    1  A    between atoms: O1_1  and  C31_31 
REMARK    2  A    between atoms: O1_1  and  C21_21 
REMARK    3  A    between atoms: O3_3  and  C41_41 
REMARK    4  A    between atoms: O4_4  and  C43_43 
REMARK    5  A    between atoms: C18_18  and  C25_25 
REMARK    6  A    between atoms: C25_25  and  C28_28 
REMARK    7  A    between atoms: C28_28  and  C30_30 
REMARK    8  A    between atoms: C30_30  and  C32_32 
REMARK    9  A    between atoms: C31_31  and  C33_33 
REMARK   10  A    between atoms: C35_35  and  C38_38 
ROOT
HETATM    1  O1  UNK     0      39.906  16.082 191.265  1.00  0.00    -0.312 OA
ENDROOT
BRANCH   1   2
HETATM    2  C31 UNK     0      39.442  17.246 190.291  1.00  0.00     0.283 C 
HETATM    3  O2  UNK     0      39.395  17.009 189.080  1.00  0.00    -0.260 OA
BRANCH   2   4
HETATM    4  C33 UNK     0      38.928  18.753 190.792  1.00  0.00     0.083 C 
HETATM    5  C35 UNK     0      37.605  19.050 191.084  1.00  0.00     0.017 C 
BRANCH   5   6
HETATM    6  C38 UNK     0      36.925  20.432 191.678  1.00  0.00    -0.033 A 
HETATM    7  C39 UNK     0      35.622  20.443 192.059  1.00  0.00     0.051 A 
HETATM    8  C41 UNK     0      34.961  21.698 192.653  1.00  0.00     0.102 A 
HETATM    9  C43 UNK     0      35.682  22.794 192.855  1.00  0.00     0.099 A 
HETATM   10  C42 UNK     0      37.108  22.801 192.444  1.00  0.00     0.040 A 
HETATM   11  C40 UNK     0      37.693  21.708 191.902  1.00  0.00     0.014 A 
BRANCH   8  12
HETATM   12  O3  UNK     0      33.594  21.739 193.050  1.00  0.00    -0.353 OA
HETATM   13  C44 UNK     0      33.109  20.470 193.476  1.00  0.00     0.210 C 
ENDBRANCH   8  12
BRANCH   9  14
HETATM   14  O4  UNK     0      35.047  23.942 193.427  1.00  0.00    -0.358 OA
HETATM   15  H99 UNK     0      35.627  24.743 193.372  1.00  0.00     0.217 HD
ENDBRANCH   9  14
ENDBRANCH   5   6
ENDBRANCH   2   4
ENDBRANCH   1   2
BRANCH   1  16
HETATM   16  C21 UNK     0      40.362  16.343 192.838  1.00  0.00     0.140 C 
HETATM   17  C17 UNK     0      41.992  16.171 193.032  1.00  0.00    -0.017 C 
HETATM   18  C9  UNK     0      42.496  16.509 194.606  1.00  0.00     0.005 C 
HETATM   19  C27 UNK     0      42.372  14.725 192.613  1.00  0.00     0.018 C 
HETATM   20  C26 UNK     0      42.713  17.142 192.079  1.00  0.00     0.018 C 
HETATM   21  C6  UNK     0      41.787  15.622 195.682  1.00  0.00    -0.027 A 
HETATM   22  C15 UNK     0      44.069  16.305 194.781  1.00  0.00     0.007 C 
HETATM   23  C5  UNK     0      42.428  15.549 197.203  1.00  0.00    -0.027 A 
HETATM   24  C7  UNK     0      42.303  14.364 195.970  1.00  0.00     0.021 A 
HETATM   25  C13 UNK     0      40.208  15.722 195.483  1.00  0.00     0.013 C 
HETATM   26  C8  UNK     0      44.011  15.578 197.327  1.00  0.00     0.004 C 
HETATM   27  C11 UNK     0      41.835  14.614 198.366  1.00  0.00     0.011 C 
HETATM   28  C10 UNK     0      44.497  15.951 198.867  1.00  0.00    -0.032 C 
HETATM   29  C14 UNK     0      44.573  16.605 196.263  1.00  0.00     0.007 C 
HETATM   30  C19 UNK     0      46.047  15.816 199.151  1.00  0.00     0.011 C 
HETATM   31  C23 UNK     0      44.030  17.404 199.196  1.00  0.00     0.016 C 
HETATM   32  C12 UNK     0      43.929  14.962 199.941  1.00  0.00    -0.032 C 
HETATM   33  C22 UNK     0      46.177  15.404 200.729  1.00  0.00     0.006 C 
HETATM   34  C18 UNK     0      44.728  15.477 201.312  1.00  0.00    -0.002 C 
HETATM   35  C16 UNK     0      42.350  15.040 199.851  1.00  0.00     0.011 C 
HETATM   36  C24 UNK     0      44.389  13.501 199.658  1.00  0.00     0.016 C 
HETATM   37  C20 UNK     0      39.729  15.352 193.935  1.00  0.00     0.034 C 
BRANCH  34  38
HETATM   38  C25 UNK     0      44.556  14.649 202.744  1.00  0.00    -0.014 C 
HETATM   39  C29 UNK     0      43.108  14.756 203.263  1.00  0.00     0.010 C 
BRANCH  38  40
HETATM   40  C28 UNK     0      45.513  15.165 203.929  1.00  0.00     0.008 C 
BRANCH  40  41
HETATM   41  C30 UNK     0      45.011  16.594 204.476  1.00  0.00     0.028 C 
BRANCH  41  42
HETATM   42  C32 UNK     0      45.658  17.804 203.757  1.00  0.00    -0.025 C 
HETATM   43  C34 UNK     0      44.934  18.670 203.020  1.00  0.00    -0.091 C 
HETATM   44  C36 UNK     0      45.606  19.847 202.349  1.00  0.00     0.042 C 
HETATM   45  C37 UNK     0      43.447  18.487 202.845  1.00  0.00     0.042 C 
ENDBRANCH  41  42
ENDBRANCH  40  41
ENDBRANCH  38  40
ENDBRANCH  34  38
ENDBRANCH   1  16
TORSDOF 10
REMARK  10 active torsions:
REMARK  status: ('A' for Active; 'I' for Inactive)
REMARK    1  A    between atoms: O1_1  and  C12_12 
REMARK    2  A    between atoms: O2_2  and  C13_13 
REMARK    3  A    between atoms: O3_3  and  C18_18 
REMARK    4  A    between atoms: O4_4  and  C19_19 
REMARK    5  A    between atoms: C7_7  and  C16_16 
REMARK    6  A    between atoms: C8_8  and  C17_17 
REMARK    7  A    between atoms: C9_9  and  C21_21 
REMARK    8  A    between atoms: C9_9  and  C20_20 
REMARK    9  A    between atoms: C20_20  and  C24_24 
REMARK   10  A    between atoms: C21_21  and  C25_25 
ROOT
HETATM    1  O1          0      34.872  20.719 196.561  1.00  0.00    -0.353 OA
HETATM    2  C26         0      35.142  22.121 196.492  1.00  0.00     0.210 C 
ENDROOT
BRANCH   1   3
HETATM    3  C12         0      35.882  19.960 195.930  1.00  0.00     0.102 A 
HETATM    4  C18         0      35.613  18.699 195.602  1.00  0.00     0.099 A 
HETATM    5  C22         0      36.644  17.881 194.944  1.00  0.00     0.040 A 
HETATM    6  C14         0      37.850  18.393 194.668  1.00  0.00     0.014 A 
HETATM    7  C7          0      38.174  19.791 195.020  1.00  0.00    -0.033 A 
HETATM    8  C10         0      37.231  20.536 195.621  1.00  0.00     0.051 A 
BRANCH   4   9
HETATM    9  O3          0      34.347  18.165 195.894  1.00  0.00    -0.358 OA
HETATM   10  H40         0      33.778  18.850 196.326  1.00  0.00     0.217 HD
ENDBRANCH   4   9
BRANCH   7  11
HETATM   11  C16         0      39.553  20.392 194.711  1.00  0.00     0.015 C 
HETATM   12  C24         0      40.477  19.797 193.922  1.00  0.00     0.051 C 
BRANCH  12  13
HETATM   13  C20         0      41.847  20.453 193.650  1.00  0.00     0.156 C 
HETATM   14  O5          0      41.949  21.255 192.714  1.00  0.00    -0.293 OA
BRANCH  13  15
HETATM   15  C9          0      43.113  20.122 194.536  1.00  0.00     0.165 C 
BRANCH  15  16
HETATM   16  C21         0      42.934  20.379 196.086  1.00  0.00     0.156 C 
HETATM   17  O6          0      43.332  21.441 196.580  1.00  0.00    -0.293 OA
BRANCH  16  18
HETATM   18  C25         0      42.271  19.333 197.005  1.00  0.00     0.051 C 
HETATM   19  C17         0      41.164  19.626 197.726  1.00  0.00     0.015 C 
BRANCH  19  20
HETATM   20  C8          0      40.457  18.631 198.658  1.00  0.00    -0.033 A 
HETATM   21  C15         0      40.764  18.584 200.102  1.00  0.00     0.014 A 
HETATM   22  C23         0      40.140  17.711 200.905  1.00  0.00     0.040 A 
HETATM   23  C19         0      39.136  16.780 200.366  1.00  0.00     0.099 A 
HETATM   24  C13         0      38.844  16.804 199.068  1.00  0.00     0.102 A 
HETATM   25  C11         0      39.541  17.780 198.168  1.00  0.00     0.051 A 
BRANCH  23  26
HETATM   26  O4          0      38.480  15.863 201.205  1.00  0.00    -0.358 OA
HETATM   27  H41         0      38.273  15.033 200.706  1.00  0.00     0.217 HD
ENDBRANCH  23  26
BRANCH  24  28
HETATM   28  O2          0      37.876  15.898 198.582  1.00  0.00    -0.353 OA
HETATM   29  C27         0      36.605  16.527 198.400  1.00  0.00     0.210 C 
ENDBRANCH  24  28
ENDBRANCH  19  20
ENDBRANCH  16  18
ENDBRANCH  15  16
ENDBRANCH  13  15
ENDBRANCH  12  13
ENDBRANCH   7  11
ENDBRANCH   1   3
TORSDOF 10
ENDMDL
