MODEL 1
REMARK VINA RESULT:    -3.755      0.000      0.000
REMARK INTER + INTRA:          -4.633
REMARK INTER:                  -4.633
REMARK INTRA:                   0.000
REMARK UNBOUND:                 0.000
REMARK  Name = Brazilin.pdb
REMARK  4 active torsions:
REMARK  status: ('A' for Active; 'I' for Inactive)
REMARK    1  A    between atoms: C3_3  and  O3_6
REMARK    2  A    between atoms: C4_4  and  O4_7
REMARK    3  A    between atoms: C10_10  and  O1_16
REMARK    4  A    between atoms: C19_19  and  O1_21
REMARK                            x       y       z     vdW  Elec       q    Type
REMARK                         _______ _______ _______ _____ _____    ______ ____
ROOT
ATOM      1 3C45 GLC     4      39.854  13.313 196.318  0.00  0.00    +0.000 A 
ATOM      2  C2  GLC     4      39.950  11.892 196.671  0.00  0.00    +0.000 A 
ATOM      3  C3  GLC     4      41.162  11.407 196.953  0.00  0.00    +0.000 A 
ATOM      4  C4  GLC     4      42.341  12.283 196.925  0.00  0.00    +0.000 A 
ATOM      5  C5  GLC     4      42.237  13.583 196.618  0.00  0.00    +0.000 A 
ATOM      6 3C45 GLC     4      40.923  14.101 196.291  0.00  0.00    +0.000 A 
ATOM      7  C9  GLC     4      40.508  15.492 195.822  0.00  0.00    +0.000 C 
ATOM      8  C10 GLC     4      39.105  15.490 196.341  0.00  0.00    +0.000 C 
ATOM      9  C11 GLC     4      38.631  14.088 195.880  0.00  0.00    +0.000 C 
ATOM     10  C12 GLC     4      38.318  16.708 195.867  0.00  0.00    +0.000 C 
ATOM     11  O13 GLC     4      39.014  17.861 196.349  0.00  0.00    +0.000 OA
ATOM     12  C14 GLC     4      40.365  17.930 196.482  0.00  0.00    +0.000 A 
ATOM     13  C15 GLC     4      41.213  16.751 196.232  0.00  0.00    +0.000 A 
ATOM     14  C17 GLC     4      42.534  16.859 196.354  0.00  0.00    +0.000 A 
ATOM     15  C18 GLC     4      43.113  18.136 196.748  0.00  0.00    +0.000 A 
ATOM     16  C19 GLC     4      42.332  19.190 196.977  0.00  0.00    +0.000 A 
ATOM     17  C20 GLC     4      40.907  19.086 196.838  0.00  0.00    +0.000 A 
ENDROOT
BRANCH   3  18
ATOM     18  O3  GLC     4      41.368  10.073 197.272  0.00  0.00    +0.000 OA
ATOM     19  H3  GLC     4      40.939   9.814 198.140  0.00  0.00    +0.000 HD
ENDBRANCH   3  18
BRANCH   4  20
ATOM     20  O4  GLC     4      43.562  11.720 197.212  0.00  0.00    +0.000 OA
ATOM     21  H4  GLC     4      44.260  12.456 197.320  0.00  0.00    +0.000 HD
ENDBRANCH   4  20
BRANCH   8  22
ATOM     22  O1  GLC     4      39.131  15.549 197.780  0.00  0.00    +0.000 OA
ATOM     23  H10 GLC     4      38.269  15.851 198.136  0.00  0.00    +0.000 HD
ENDBRANCH   8  22
BRANCH  16  24
ATOM     24  O1  GLC     4      42.875  20.375 197.341  0.00  0.00    +0.000 OA
ATOM     25  H14 GLC     4      43.662  20.502 196.822  0.00  0.00    +0.000 HD
ENDBRANCH  16  24
TORSDOF 4
REMARK  Name = HEMCA.pdb
REMARK  4 active torsions:
REMARK  status: ('A' for Active; 'I' for Inactive)
REMARK    1  A    between atoms: C5_5  and  O19_19
REMARK    2  A    between atoms: C6_6  and  O18_18
REMARK    3  A    between atoms: C7_7  and  O20_20
REMARK    4  A    between atoms: C17_17  and  O21_21
REMARK                            x       y       z     vdW  Elec       q    Type
REMARK                         _______ _______ _______ _____ _____    ______ ____
ROOT
ATOM      1  C1  UNK H   1      41.038  13.307 192.796  0.00  0.00    +0.000 A 
ATOM      2  C2  UNK H   1      41.876  12.342 193.172  0.00  0.00    +0.000 A 
ATOM      3  C3  UNK H   1      39.647  12.972 192.433  0.00  0.00    +0.000 A 
ATOM      4  C4  UNK H   1      41.423  10.951 193.212  0.00  0.00    +0.000 A 
ATOM      5  C5  UNK H   1      39.245  11.703 192.459  0.00  0.00    +0.000 A 
ATOM      6  C6  UNK H   1      40.174  10.646 192.864  0.00  0.00    +0.000 A 
ATOM      7  C7  UNK H   1      40.482  15.656 192.048  0.00  0.00    +0.000 C 
ATOM      8  C8  UNK H   1      41.427  14.716 192.675  0.00  0.00    +0.000 C 
ATOM      9  C9  UNK H   1      39.018  15.347 192.354  0.00  0.00    +0.000 C 
ATOM     10  O10 UNK H   1      38.741  13.975 192.090  0.00  0.00    +0.000 OA
ATOM     11  C11 UNK H   1      41.016  17.082 192.403  0.00  0.00    +0.000 C 
ATOM     12  C12 UNK H   1      42.450  16.715 192.655  0.00  0.00    +0.000 C 
ATOM     13  C13 UNK H   1      42.586  15.326 192.923  0.00  0.00    +0.000 C 
ATOM     14  C14 UNK H   1      43.465  17.563 192.773  0.00  0.00    +0.000 C 
ATOM     15  C15 UNK H   1      44.773  17.015 193.166  0.00  0.00    +0.000 C 
ATOM     16  C16 UNK H   1      43.846  14.766 193.408  0.00  0.00    +0.000 C 
ATOM     17  C17 UNK H   1      44.900  15.578 193.516  0.00  0.00    +0.000 C 
ATOM     18  O22 UNK H   1      45.753  17.762 193.259  0.00  0.00    +0.000 OA
ENDROOT
BRANCH   6  19
ATOM     19  O18 UNK H   1      39.746   9.323 192.900  0.00  0.00    +0.000 OA
ATOM     20  H9  UNK H   1      39.207   9.153 193.785  0.00  0.00    +0.000 HD
ENDBRANCH   6  19
BRANCH   5  21
ATOM     21  O19 UNK H   1      37.934  11.385 192.126  0.00  0.00    +0.000 OA
ATOM     22  H10 UNK H   1      37.306  12.195 192.357  0.00  0.00    +0.000 HD
ENDBRANCH   5  21
BRANCH   7  23
ATOM     23  O20 UNK H   1      40.703  15.449 190.652  0.00  0.00    +0.000 OA
ATOM     24  H11 UNK H   1      41.676  15.082 190.502  0.00  0.00    +0.000 HD
ENDBRANCH   7  23
BRANCH  17  25
ATOM     25  O21 UNK H   1      46.118  15.076 193.958  0.00  0.00    +0.000 OA
ATOM     26  H12 UNK H   1      46.892  15.457 193.359  0.00  0.00    +0.000 HD
ENDBRANCH  17  25
TORSDOF 4
ENDMDL
MODEL 2
REMARK VINA RESULT:    -3.755      3.589      7.761
REMARK INTER + INTRA:          -4.633
REMARK INTER:                  -4.633
REMARK INTRA:                   0.000
REMARK UNBOUND:                 0.000
REMARK  Name = Brazilin.pdb
REMARK  4 active torsions:
REMARK  status: ('A' for Active; 'I' for Inactive)
REMARK    1  A    between atoms: C3_3  and  O3_6
REMARK    2  A    between atoms: C4_4  and  O4_7
REMARK    3  A    between atoms: C10_10  and  O1_16
REMARK    4  A    between atoms: C19_19  and  O1_21
REMARK                            x       y       z     vdW  Elec       q    Type
REMARK                         _______ _______ _______ _____ _____    ______ ____
ROOT
ATOM      1 3C45 GLC     4      41.611  17.924 195.987  0.00  0.00    +0.000 A 
ATOM      2  C2  GLC     4      41.892  19.083 195.133  0.00  0.00    +0.000 A 
ATOM      3  C3  GLC     4      42.174  20.241 195.739  0.00  0.00    +0.000 A 
ATOM      4  C4  GLC     4      42.214  20.326 197.205  0.00  0.00    +0.000 A 
ATOM      5  C5  GLC     4      41.971  19.255 197.972  0.00  0.00    +0.000 A 
ATOM      6 3C45 GLC     4      41.644  18.006 197.313  0.00  0.00    +0.000 A 
ATOM      7  C9  GLC     4      41.239  16.661 197.909  0.00  0.00    +0.000 C 
ATOM      8  C10 GLC     4      41.729  15.775 196.807  0.00  0.00    +0.000 C 
ATOM      9  C11 GLC     4      41.188  16.533 195.568  0.00  0.00    +0.000 C 
ATOM     10  C12 GLC     4      41.302  14.325 197.007  0.00  0.00    +0.000 C 
ATOM     11  O13 GLC     4      41.855  13.900 198.256  0.00  0.00    +0.000 OA
ATOM     12  C14 GLC     4      42.018  14.718 199.329  0.00  0.00    +0.000 A 
ATOM     13  C15 GLC     4      41.725  16.161 199.236  0.00  0.00    +0.000 A 
ATOM     14  C17 GLC     4      41.879  16.929 200.311  0.00  0.00    +0.000 A 
ATOM     15  C18 GLC     4      42.349  16.333 201.555  0.00  0.00    +0.000 A 
ATOM     16  C19 GLC     4      42.615  15.029 201.620  0.00  0.00    +0.000 A 
ATOM     17  C20 GLC     4      42.443  14.190 200.469  0.00  0.00    +0.000 A 
ENDROOT
BRANCH   3  18
ATOM     18  O3  GLC     4      42.429  21.403 195.026  0.00  0.00    +0.000 OA
ATOM     19  H3  GLC     4      41.742  22.114 195.192  0.00  0.00    +0.000 HD
ENDBRANCH   3  18
BRANCH   4  20
ATOM     20  O4  GLC     4      42.496  21.548 197.766  0.00  0.00    +0.000 OA
ATOM     21  H4  GLC     4      41.678  22.153 197.695  0.00  0.00    +0.000 HD
ENDBRANCH   4  20
BRANCH   8  22
ATOM     22  O1  GLC     4      43.169  15.784 196.796  0.00  0.00    +0.000 OA
ATOM     23  H10 GLC     4      43.521  16.535 197.319  0.00  0.00    +0.000 HD
ENDBRANCH   8  22
BRANCH  16  24
ATOM     24  O1  GLC     4      43.050  14.480 202.778  0.00  0.00    +0.000 OA
ATOM     25  H14 GLC     4      42.449  13.779 203.007  0.00  0.00    +0.000 HD
ENDBRANCH  16  24
TORSDOF 4
REMARK  Name = HEMCA.pdb
REMARK  4 active torsions:
REMARK  status: ('A' for Active; 'I' for Inactive)
REMARK    1  A    between atoms: C5_5  and  O19_19
REMARK    2  A    between atoms: C6_6  and  O18_18
REMARK    3  A    between atoms: C7_7  and  O20_20
REMARK    4  A    between atoms: C17_17  and  O21_21
REMARK                            x       y       z     vdW  Elec       q    Type
REMARK                         _______ _______ _______ _____ _____    ______ ____
ROOT
ATOM      1  C1  UNK H   1      38.117  18.599 197.064  0.00  0.00    +0.000 A 
ATOM      2  C2  UNK H   1      38.460  19.887 197.071  0.00  0.00    +0.000 A 
ATOM      3  C3  UNK H   1      37.709  17.955 195.799  0.00  0.00    +0.000 A 
ATOM      4  C4  UNK H   1      38.419  20.664 195.831  0.00  0.00    +0.000 A 
ATOM      5  C5  UNK H   1      37.661  18.671 194.678  0.00  0.00    +0.000 A 
ATOM      6  C6  UNK H   1      38.030  20.088 194.695  0.00  0.00    +0.000 A 
ATOM      7  C7  UNK H   1      37.479  16.421 198.176  0.00  0.00    +0.000 C 
ATOM      8  C8  UNK H   1      38.076  17.764 198.269  0.00  0.00    +0.000 C 
ATOM      9  C9  UNK H   1      37.739  15.728 196.839  0.00  0.00    +0.000 C 
ATOM     10  O10 UNK H   1      37.399  16.595 195.763  0.00  0.00    +0.000 OA
ATOM     11  C11 UNK H   1      37.917  15.679 199.480  0.00  0.00    +0.000 C 
ATOM     12  C12 UNK H   1      38.180  16.887 200.334  0.00  0.00    +0.000 C 
ATOM     13  C13 UNK H   1      38.379  18.047 199.536  0.00  0.00    +0.000 C 
ATOM     14  C14 UNK H   1      38.361  16.890 201.648  0.00  0.00    +0.000 C 
ATOM     15  C15 UNK H   1      38.753  18.159 202.282  0.00  0.00    +0.000 C 
ATOM     16  C16 UNK H   1      38.860  19.297 200.121  0.00  0.00    +0.000 C 
ATOM     17  C17 UNK H   1      39.031  19.352 201.443  0.00  0.00    +0.000 C 
ATOM     18  O22 UNK H   1      38.904  18.217 203.507  0.00  0.00    +0.000 OA
ENDROOT
BRANCH   6  19
ATOM     19  O18 UNK H   1      37.989  20.829 193.520  0.00  0.00    +0.000 OA
ATOM     20  H9  UNK H   1      37.037  21.260 193.410  0.00  0.00    +0.000 HD
ENDBRANCH   6  19
BRANCH   5  21
ATOM     21  O19 UNK H   1      37.285  18.066 193.485  0.00  0.00    +0.000 OA
ATOM     22  H10 UNK H   1      36.698  17.220 193.691  0.00  0.00    +0.000 HD
ENDBRANCH   5  21
BRANCH   7  23
ATOM     23  O20 UNK H   1      36.079  16.685 198.281  0.00  0.00    +0.000 OA
ATOM     24  H11 UNK H   1      35.587  15.830 198.640  0.00  0.00    +0.000 HD
ENDBRANCH   7  23
BRANCH  17  25
ATOM     25  O21 UNK H   1      39.472  20.529 202.036  0.00  0.00    +0.000 OA
ATOM     26  H12 UNK H   1      40.321  20.880 201.529  0.00  0.00    +0.000 HD
ENDBRANCH  17  25
TORSDOF 4
ENDMDL
MODEL 3
REMARK VINA RESULT:    -3.754      2.609      6.500
REMARK INTER + INTRA:          -4.632
REMARK INTER:                  -4.632
REMARK INTRA:                   0.000
REMARK UNBOUND:                 0.000
REMARK  Name = Brazilin.pdb
REMARK  4 active torsions:
REMARK  status: ('A' for Active; 'I' for Inactive)
REMARK    1  A    between atoms: C3_3  and  O3_6
REMARK    2  A    between atoms: C4_4  and  O4_7
REMARK    3  A    between atoms: C10_10  and  O1_16
REMARK    4  A    between atoms: C19_19  and  O1_21
REMARK                            x       y       z     vdW  Elec       q    Type
REMARK                         _______ _______ _______ _____ _____    ______ ____
ROOT
ATOM      1 3C45 GLC     4      41.548  16.658 192.698  0.00  0.00    +0.000 A 
ATOM      2  C2  GLC     4      42.651  16.943 191.773  0.00  0.00    +0.000 A 
ATOM      3  C3  GLC     4      42.342  17.140 190.488  0.00  0.00    +0.000 A 
ATOM      4  C4  GLC     4      40.944  17.088 190.040  0.00  0.00    +0.000 A 
ATOM      5  C5  GLC     4      39.945  16.844 190.899  0.00  0.00    +0.000 A 
ATOM      6 3C45 GLC     4      40.285  16.609 192.288  0.00  0.00    +0.000 A 
ATOM      7  C9  GLC     4      39.391  16.225 193.464  0.00  0.00    +0.000 C 
ATOM      8  C10 GLC     4      40.212  16.815 194.567  0.00  0.00    +0.000 C 
ATOM      9  C11 GLC     4      41.625  16.319 194.170  0.00  0.00    +0.000 C 
ATOM     10  C12 GLC     4      39.675  16.438 195.943  0.00  0.00    +0.000 C 
ATOM     11  O13 GLC     4      38.334  16.932 196.014  0.00  0.00    +0.000 OA
ATOM     12  C14 GLC     4      37.494  16.997 194.948  0.00  0.00    +0.000 A 
ATOM     13  C15 GLC     4      37.960  16.651 193.592  0.00  0.00    +0.000 A 
ATOM     14  C17 GLC     4      37.105  16.708 192.574  0.00  0.00    +0.000 A 
ATOM     15  C18 GLC     4      35.731  17.128 192.817  0.00  0.00    +0.000 A 
ATOM     16  C19 GLC     4      35.329  17.443 194.047  0.00  0.00    +0.000 A 
ATOM     17  C20 GLC     4      36.240  17.374 195.153  0.00  0.00    +0.000 A 
ENDROOT
BRANCH   3  18
ATOM     18  O3  GLC     4      43.310  17.388 189.527  0.00  0.00    +0.000 OA
ATOM     19  H3  GLC     4      43.736  16.548 189.184  0.00  0.00    +0.000 HD
ENDBRANCH   3  18
BRANCH   4  20
ATOM     20  O4  GLC     4      40.694  17.286 188.704  0.00  0.00    +0.000 OA
ATOM     21  H4  GLC     4      39.761  17.680 188.586  0.00  0.00    +0.000 HD
ENDBRANCH   4  20
BRANCH   8  22
ATOM     22  O1  GLC     4      40.156  18.252 194.482  0.00  0.00    +0.000 OA
ATOM     23  H10 GLC     4      40.536  18.668 195.285  0.00  0.00    +0.000 HD
ENDBRANCH   8  22
BRANCH  16  24
ATOM     24  O1  GLC     4      34.050  17.830 194.267  0.00  0.00    +0.000 OA
ATOM     25  H14 GLC     4      33.625  17.144 194.770  0.00  0.00    +0.000 HD
ENDBRANCH  16  24
TORSDOF 4
REMARK  Name = HEMCA.pdb
REMARK  4 active torsions:
REMARK  status: ('A' for Active; 'I' for Inactive)
REMARK    1  A    between atoms: C5_5  and  O19_19
REMARK    2  A    between atoms: C6_6  and  O18_18
REMARK    3  A    between atoms: C7_7  and  O20_20
REMARK    4  A    between atoms: C17_17  and  O21_21
REMARK                            x       y       z     vdW  Elec       q    Type
REMARK                         _______ _______ _______ _____ _____    ______ ____
ROOT
ATOM      1  C1  UNK H   1      40.846  13.082 191.976  0.00  0.00    +0.000 A 
ATOM      2  C2  UNK H   1      41.146  13.370 190.710  0.00  0.00    +0.000 A 
ATOM      3  C3  UNK H   1      41.925  12.778 192.936  0.00  0.00    +0.000 A 
ATOM      4  C4  UNK H   1      42.542  13.374 190.270  0.00  0.00    +0.000 A 
ATOM      5  C5  UNK H   1      43.192  12.770 192.526  0.00  0.00    +0.000 A 
ATOM      6  C6  UNK H   1      43.514  13.079 191.132  0.00  0.00    +0.000 A 
ATOM      7  C7  UNK H   1      39.253  12.467 193.840  0.00  0.00    +0.000 C 
ATOM      8  C8  UNK H   1      39.473  13.002 192.485  0.00  0.00    +0.000 C 
ATOM      9  C9  UNK H   1      40.358  12.836 194.829  0.00  0.00    +0.000 C 
ATOM     10  O10 UNK H   1      41.633  12.527 194.277  0.00  0.00    +0.000 OA
ATOM     11  C11 UNK H   1      37.785  12.854 194.208  0.00  0.00    +0.000 C 
ATOM     12  C12 UNK H   1      37.251  13.014 192.813  0.00  0.00    +0.000 C 
ATOM     13  C13 UNK H   1      38.304  13.214 191.880  0.00  0.00    +0.000 C 
ATOM     14  C14 UNK H   1      35.972  13.115 192.473  0.00  0.00    +0.000 C 
ATOM     15  C15 UNK H   1      35.660  13.414 191.066  0.00  0.00    +0.000 C 
ATOM     16  C16 UNK H   1      38.031  13.607 190.499  0.00  0.00    +0.000 C 
ATOM     17  C17 UNK H   1      36.758  13.695 190.106  0.00  0.00    +0.000 C 
ATOM     18  O22 UNK H   1      34.483  13.488 190.697  0.00  0.00    +0.000 OA
ENDROOT
BRANCH   6  19
ATOM     19  O18 UNK H   1      44.839  13.079 190.710  0.00  0.00    +0.000 OA
ATOM     20  H9  UNK H   1      44.968  12.357 189.958  0.00  0.00    +0.000 HD
ENDBRANCH   6  19
BRANCH   5  21
ATOM     21  O19 UNK H   1      44.211  12.493 193.430  0.00  0.00    +0.000 OA
ATOM     22  H10 UNK H   1      45.085  12.994 193.137  0.00  0.00    +0.000 HD
ENDBRANCH   5  21
BRANCH   7  23
ATOM     23  O20 UNK H   1      39.287  11.053 193.635  0.00  0.00    +0.000 OA
ATOM     24  H11 UNK H   1      40.280  10.715 193.683  0.00  0.00    +0.000 HD
ENDBRANCH   7  23
BRANCH  17  25
ATOM     25  O21 UNK H   1      36.460  14.050 188.796  0.00  0.00    +0.000 OA
ATOM     26  H12 UNK H   1      37.182  14.726 188.444  0.00  0.00    +0.000 HD
ENDBRANCH  17  25
TORSDOF 4
ENDMDL
MODEL 4
REMARK VINA RESULT:    -3.754      4.292      7.856
REMARK INTER + INTRA:          -4.631
REMARK INTER:                  -4.631
REMARK INTRA:                   0.000
REMARK UNBOUND:                 0.000
REMARK  Name = Brazilin.pdb
REMARK  4 active torsions:
REMARK  status: ('A' for Active; 'I' for Inactive)
REMARK    1  A    between atoms: C3_3  and  O3_6
REMARK    2  A    between atoms: C4_4  and  O4_7
REMARK    3  A    between atoms: C10_10  and  O1_16
REMARK    4  A    between atoms: C19_19  and  O1_21
REMARK                            x       y       z     vdW  Elec       q    Type
REMARK                         _______ _______ _______ _____ _____    ______ ____
ROOT
ATOM      1 3C45 GLC     4      40.905  21.013 195.375  0.00  0.00    +0.000 A 
ATOM      2  C2  GLC     4      40.574  20.599 194.007  0.00  0.00    +0.000 A 
ATOM      3  C3  GLC     4      39.811  19.512 193.859  0.00  0.00    +0.000 A 
ATOM      4  C4  GLC     4      39.317  18.781 195.034  0.00  0.00    +0.000 A 
ATOM      5  C5  GLC     4      39.613  19.180 196.278  0.00  0.00    +0.000 A 
ATOM      6 3C45 GLC     4      40.459  20.347 196.435  0.00  0.00    +0.000 A 
ATOM      7  C9  GLC     4      41.031  20.978 197.700  0.00  0.00    +0.000 C 
ATOM      8  C10 GLC     4      41.160  22.385 197.206  0.00  0.00    +0.000 C 
ATOM      9  C11 GLC     4      41.807  22.143 195.819  0.00  0.00    +0.000 C 
ATOM     10  C12 GLC     4      41.899  23.274 198.201  0.00  0.00    +0.000 C 
ATOM     11  O13 GLC     4      41.144  23.252 199.415  0.00  0.00    +0.000 OA
ATOM     12  C14 GLC     4      40.447  22.171 199.854  0.00  0.00    +0.000 A 
ATOM     13  C15 GLC     4      40.335  20.953 199.028  0.00  0.00    +0.000 A 
ATOM     14  C17 GLC     4      39.660  19.907 199.496  0.00  0.00    +0.000 A 
ATOM     15  C18 GLC     4      39.030  19.991 200.808  0.00  0.00    +0.000 A 
ATOM     16  C19 GLC     4      39.136  21.100 201.537  0.00  0.00    +0.000 A 
ATOM     17  C20 GLC     4      39.871  22.230 201.046  0.00  0.00    +0.000 A 
ENDROOT
BRANCH   3  18
ATOM     18  O3  GLC     4      39.463  19.019 192.610  0.00  0.00    +0.000 OA
ATOM     19  H3  GLC     4      40.251  18.663 192.103  0.00  0.00    +0.000 HD
ENDBRANCH   3  18
BRANCH   4  20
ATOM     20  O4  GLC     4      38.549  17.664 194.814  0.00  0.00    +0.000 OA
ATOM     21  H4  GLC     4      38.762  16.959 195.519  0.00  0.00    +0.000 HD
ENDBRANCH   4  20
BRANCH   8  22
ATOM     22  O1  GLC     4      39.847  22.952 197.042  0.00  0.00    +0.000 OA
ATOM     23  H10 GLC     4      39.358  22.964 197.892  0.00  0.00    +0.000 HD
ENDBRANCH   8  22
BRANCH  16  24
ATOM     24  O1  GLC     4      38.551  21.172 202.756  0.00  0.00    +0.000 OA
ATOM     25  H14 GLC     4      39.155  20.796 203.388  0.00  0.00    +0.000 HD
ENDBRANCH  16  24
TORSDOF 4
REMARK  Name = HEMCA.pdb
REMARK  4 active torsions:
REMARK  status: ('A' for Active; 'I' for Inactive)
REMARK    1  A    between atoms: C5_5  and  O19_19
REMARK    2  A    between atoms: C6_6  and  O18_18
REMARK    3  A    between atoms: C7_7  and  O20_20
REMARK    4  A    between atoms: C17_17  and  O21_21
REMARK                            x       y       z     vdW  Elec       q    Type
REMARK                         _______ _______ _______ _____ _____    ______ ____
ROOT
ATOM      1  C1  UNK H   1      43.586  18.602 196.273  0.00  0.00    +0.000 A 
ATOM      2  C2  UNK H   1      42.909  17.713 195.547  0.00  0.00    +0.000 A 
ATOM      3  C3  UNK H   1      44.514  19.538 195.608  0.00  0.00    +0.000 A 
ATOM      4  C4  UNK H   1      43.094  17.657 194.096  0.00  0.00    +0.000 A 
ATOM      5  C5  UNK H   1      44.688  19.473 194.290  0.00  0.00    +0.000 A 
ATOM      6  C6  UNK H   1      43.948  18.488 193.500  0.00  0.00    +0.000 A 
ATOM      7  C7  UNK H   1      44.452  19.559 198.445  0.00  0.00    +0.000 C 
ATOM      8  C8  UNK H   1      43.502  18.687 197.734  0.00  0.00    +0.000 C 
ATOM      9  C9  UNK H   1      44.806  20.832 197.678  0.00  0.00    +0.000 C 
ATOM     10  O10 UNK H   1      45.191  20.511 196.345  0.00  0.00    +0.000 OA
ATOM     11  C11 UNK H   1      43.876  19.714 199.889  0.00  0.00    +0.000 C 
ATOM     12  C12 UNK H   1      43.044  18.464 199.922  0.00  0.00    +0.000 C 
ATOM     13  C13 UNK H   1      42.771  17.994 198.608  0.00  0.00    +0.000 C 
ATOM     14  C14 UNK H   1      42.488  17.923 200.998  0.00  0.00    +0.000 C 
ATOM     15  C15 UNK H   1      41.586  16.777 200.801  0.00  0.00    +0.000 C 
ATOM     16  C16 UNK H   1      41.807  16.922 198.370  0.00  0.00    +0.000 C 
ATOM     17  C17 UNK H   1      41.244  16.331 199.426  0.00  0.00    +0.000 C 
ATOM     18  O22 UNK H   1      41.068  16.222 201.776  0.00  0.00    +0.000 OA
ENDROOT
BRANCH   6  19
ATOM     19  O18 UNK H   1      44.124  18.430 192.122  0.00  0.00    +0.000 OA
ATOM     20  H9  UNK H   1      43.899  19.366 191.700  0.00  0.00    +0.000 HD
ENDBRANCH   6  19
BRANCH   5  21
ATOM     21  O19 UNK H   1      45.555  20.358 193.661  0.00  0.00    +0.000 OA
ATOM     22  H10 UNK H   1      45.989  19.891 192.827  0.00  0.00    +0.000 HD
ENDBRANCH   5  21
BRANCH   7  23
ATOM     23  O20 UNK H   1      45.625  18.748 198.536  0.00  0.00    +0.000 OA
ATOM     24  H11 UNK H   1      46.147  18.783 197.625  0.00  0.00    +0.000 HD
ENDBRANCH   7  23
BRANCH  17  25
ATOM     25  O21 UNK H   1      40.335  15.297 199.238  0.00  0.00    +0.000 OA
ATOM     26  H12 UNK H   1      39.720  15.213 200.085  0.00  0.00    +0.000 HD
ENDBRANCH  17  25
TORSDOF 4
ENDMDL
MODEL 5
REMARK VINA RESULT:    -3.753      2.918      6.961
REMARK INTER + INTRA:          -4.631
REMARK INTER:                  -4.631
REMARK INTRA:                   0.000
REMARK UNBOUND:                 0.000
REMARK  Name = Brazilin.pdb
REMARK  4 active torsions:
REMARK  status: ('A' for Active; 'I' for Inactive)
REMARK    1  A    between atoms: C3_3  and  O3_6
REMARK    2  A    between atoms: C4_4  and  O4_7
REMARK    3  A    between atoms: C10_10  and  O1_16
REMARK    4  A    between atoms: C19_19  and  O1_21
REMARK                            x       y       z     vdW  Elec       q    Type
REMARK                         _______ _______ _______ _____ _____    ______ ____
ROOT
ATOM      1 3C45 GLC     4      41.243  12.869 194.859  0.00  0.00    +0.000 A 
ATOM      2  C2  GLC     4      42.087  11.684 194.669  0.00  0.00    +0.000 A 
ATOM      3  C3  GLC     4      41.473  10.503 194.550  0.00  0.00    +0.000 A 
ATOM      4  C4  GLC     4      40.007  10.416 194.593  0.00  0.00    +0.000 A 
ATOM      5  C5  GLC     4      39.248  11.508 194.751  0.00  0.00    +0.000 A 
ATOM      6 3C45 GLC     4      39.918  12.785 194.901  0.00  0.00    +0.000 A 
ATOM      7  C9  GLC     4      39.337  14.168 195.181  0.00  0.00    +0.000 C 
ATOM      8  C10 GLC     4      40.410  14.992 194.540  0.00  0.00    +0.000 C 
ATOM      9  C11 GLC     4      41.677  14.298 195.101  0.00  0.00    +0.000 C 
ATOM     10  C12 GLC     4      40.224  16.481 194.809  0.00  0.00    +0.000 C 
ATOM     11  O13 GLC     4      38.948  16.842 194.274  0.00  0.00    +0.000 OA
ATOM     12  C14 GLC     4      37.872  16.013 194.258  0.00  0.00    +0.000 A 
ATOM     13  C15 GLC     4      37.985  14.612 194.707  0.00  0.00    +0.000 A 
ATOM     14  C17 GLC     4      36.907  13.833 194.695  0.00  0.00    +0.000 A 
ATOM     15  C18 GLC     4      35.639  14.374 194.222  0.00  0.00    +0.000 A 
ATOM     16  C19 GLC     4      35.555  15.639 193.814  0.00  0.00    +0.000 A 
ATOM     17  C20 GLC     4      36.710  16.490 193.833  0.00  0.00    +0.000 A 
ENDROOT
BRANCH   3  18
ATOM     18  O3  GLC     4      42.177   9.318 194.394  0.00  0.00    +0.000 OA
ATOM     19  H3  GLC     4      43.135   9.471 194.140  0.00  0.00    +0.000 HD
ENDBRANCH   3  18
BRANCH   4  20
ATOM     20  O4  GLC     4      39.438   9.170 194.479  0.00  0.00    +0.000 OA
ATOM     21  H4  GLC     4      39.138   8.847 195.398  0.00  0.00    +0.000 HD
ENDBRANCH   4  20
BRANCH   8  22
ATOM     22  O1  GLC     4      40.350  14.820 193.111  0.00  0.00    +0.000 OA
ATOM     23  H10 GLC     4      40.925  15.468 192.653  0.00  0.00    +0.000 HD
ENDBRANCH   8  22
BRANCH  16  24
ATOM     24  O1  GLC     4      34.375  16.138 193.378  0.00  0.00    +0.000 OA
ATOM     25  H14 GLC     4      34.366  17.068 193.571  0.00  0.00    +0.000 HD
ENDBRANCH  16  24
TORSDOF 4
REMARK  Name = HEMCA.pdb
REMARK  4 active torsions:
REMARK  status: ('A' for Active; 'I' for Inactive)
REMARK    1  A    between atoms: C5_5  and  O19_19
REMARK    2  A    between atoms: C6_6  and  O18_18
REMARK    3  A    between atoms: C7_7  and  O20_20
REMARK    4  A    between atoms: C17_17  and  O21_21
REMARK                            x       y       z     vdW  Elec       q    Type
REMARK                         _______ _______ _______ _____ _____    ______ ____
ROOT
ATOM      1  C1  UNK H   1      40.348  12.598 198.456  0.00  0.00    +0.000 A 
ATOM      2  C2  UNK H   1      40.330  11.280 198.262  0.00  0.00    +0.000 A 
ATOM      3  C3  UNK H   1      41.627  13.285 198.724  0.00  0.00    +0.000 A 
ATOM      4  C4  UNK H   1      41.575  10.512 198.327  0.00  0.00    +0.000 A 
ATOM      5  C5  UNK H   1      42.753  12.579 198.796  0.00  0.00    +0.000 A 
ATOM      6  C6  UNK H   1      42.726  11.130 198.591  0.00  0.00    +0.000 A 
ATOM      7  C7  UNK H   1      39.256  14.834 198.899  0.00  0.00    +0.000 C 
ATOM      8  C8  UNK H   1      39.141  13.432 198.463  0.00  0.00    +0.000 C 
ATOM      9  C9  UNK H   1      40.574  15.494 198.496  0.00  0.00    +0.000 C 
ATOM     10  O10 UNK H   1      41.671  14.671 198.876  0.00  0.00    +0.000 OA
ATOM     11  C11 UNK H   1      37.928  15.522 198.447  0.00  0.00    +0.000 C 
ATOM     12  C12 UNK H   1      37.069  14.292 198.366  0.00  0.00    +0.000 C 
ATOM     13  C13 UNK H   1      37.862  13.118 198.259  0.00  0.00    +0.000 C 
ATOM     14  C14 UNK H   1      35.746  14.268 198.252  0.00  0.00    +0.000 C 
ATOM     15  C15 UNK H   1      35.101  12.963 198.039  0.00  0.00    +0.000 C 
ATOM     16  C16 UNK H   1      37.261  11.821 197.952  0.00  0.00    +0.000 C 
ATOM     17  C17 UNK H   1      35.932  11.746 197.855  0.00  0.00    +0.000 C 
ATOM     18  O22 UNK H   1      33.870  12.888 197.957  0.00  0.00    +0.000 OA
ENDROOT
BRANCH   6  19
ATOM     19  O18 UNK H   1      43.907  10.398 198.656  0.00  0.00    +0.000 OA
ATOM     20  H9  UNK H   1      44.685  10.949 198.216  0.00  0.00    +0.000 HD
ENDBRANCH   6  19
BRANCH   5  21
ATOM     21  O19 UNK H   1      43.960  13.223 199.040  0.00  0.00    +0.000 OA
ATOM     22  H10 UNK H   1      44.752  12.548 198.903  0.00  0.00    +0.000 HD
ENDBRANCH   5  21
BRANCH   7  23
ATOM     23  O20 UNK H   1      39.223  14.730 200.324  0.00  0.00    +0.000 OA
ATOM     24  H11 UNK H   1      40.194  14.843 200.706  0.00  0.00    +0.000 HD
ENDBRANCH   7  23
BRANCH  17  25
ATOM     25  O21 UNK H   1      35.325  10.527 197.581  0.00  0.00    +0.000 OA
ATOM     26  H12 UNK H   1      34.499  10.395 198.217  0.00  0.00    +0.000 HD
ENDBRANCH  17  25
TORSDOF 4
ENDMDL
MODEL 6
REMARK VINA RESULT:    -3.753      3.162      6.056
REMARK INTER + INTRA:          -4.631
REMARK INTER:                  -4.631
REMARK INTRA:                   0.000
REMARK UNBOUND:                 0.000
REMARK  Name = Brazilin.pdb
REMARK  4 active torsions:
REMARK  status: ('A' for Active; 'I' for Inactive)
REMARK    1  A    between atoms: C3_3  and  O3_6
REMARK    2  A    between atoms: C4_4  and  O4_7
REMARK    3  A    between atoms: C10_10  and  O1_16
REMARK    4  A    between atoms: C19_19  and  O1_21
REMARK                            x       y       z     vdW  Elec       q    Type
REMARK                         _______ _______ _______ _____ _____    ______ ____
ROOT
ATOM      1 3C45 GLC     4      40.615  15.753 189.408  0.00  0.00    +0.000 A 
ATOM      2  C2  GLC     4      39.154  15.632 189.461  0.00  0.00    +0.000 A 
ATOM      3  C3  GLC     4      38.534  16.115 190.541  0.00  0.00    +0.000 A 
ATOM      4  C4  GLC     4      39.301  16.758 191.617  0.00  0.00    +0.000 A 
ATOM      5  C5  GLC     4      40.633  16.877 191.548  0.00  0.00    +0.000 A 
ATOM      6 3C45 GLC     4      41.305  16.332 190.384  0.00  0.00    +0.000 A 
ATOM      7  C9  GLC     4      42.795  16.238 190.069  0.00  0.00    +0.000 C 
ATOM      8  C10 GLC     4      42.705  16.245 188.575  0.00  0.00    +0.000 C 
ATOM      9  C11 GLC     4      41.561  15.223 188.353  0.00  0.00    +0.000 C 
ATOM     10  C12 GLC     4      44.055  15.969 187.921  0.00  0.00    +0.000 C 
ATOM     11  O13 GLC     4      44.945  17.000 188.359  0.00  0.00    +0.000 OA
ATOM     12  C14 GLC     4      44.888  17.576 189.589  0.00  0.00    +0.000 A 
ATOM     13  C15 GLC     4      43.807  17.242 190.535  0.00  0.00    +0.000 A 
ATOM     14  C17 GLC     4      43.792  17.812 191.737  0.00  0.00    +0.000 A 
ATOM     15  C18 GLC     4      44.834  18.768 192.088  0.00  0.00    +0.000 A 
ATOM     16  C19 GLC     4      45.799  19.064 191.219  0.00  0.00    +0.000 A 
ATOM     17  C20 GLC     4      45.830  18.446 189.924  0.00  0.00    +0.000 A 
ENDROOT
BRANCH   3  18
ATOM     18  O3  GLC     4      37.159  16.027 190.704  0.00  0.00    +0.000 OA
ATOM     19  H3  GLC     4      36.709  15.573 189.932  0.00  0.00    +0.000 HD
ENDBRANCH   3  18
BRANCH   4  20
ATOM     20  O4  GLC     4      38.605  17.223 192.707  0.00  0.00    +0.000 OA
ATOM     21  H4  GLC     4      38.241  18.154 192.507  0.00  0.00    +0.000 HD
ENDBRANCH   4  20
BRANCH   8  22
ATOM     22  O1  GLC     4      42.289  17.550 188.131  0.00  0.00    +0.000 OA
ATOM     23  H10 GLC     4      43.051  18.068 187.796  0.00  0.00    +0.000 HD
ENDBRANCH   8  22
BRANCH  16  24
ATOM     24  O1  GLC     4      46.767  19.951 191.550  0.00  0.00    +0.000 OA
ATOM     25  H14 GLC     4      46.449  20.819 191.327  0.00  0.00    +0.000 HD
ENDBRANCH  16  24
TORSDOF 4
REMARK  Name = HEMCA.pdb
REMARK  4 active torsions:
REMARK  status: ('A' for Active; 'I' for Inactive)
REMARK    1  A    between atoms: C5_5  and  O19_19
REMARK    2  A    between atoms: C6_6  and  O18_18
REMARK    3  A    between atoms: C7_7  and  O20_20
REMARK    4  A    between atoms: C17_17  and  O21_21
REMARK                            x       y       z     vdW  Elec       q    Type
REMARK                         _______ _______ _______ _____ _____    ______ ____
ROOT
ATOM      1  C1  UNK H   1      41.692  13.006 191.666  0.00  0.00    +0.000 A 
ATOM      2  C2  UNK H   1      40.610  13.294 192.388  0.00  0.00    +0.000 A 
ATOM      3  C3  UNK H   1      41.576  12.125 190.487  0.00  0.00    +0.000 A 
ATOM      4  C4  UNK H   1      39.311  12.727 192.021  0.00  0.00    +0.000 A 
ATOM      5  C5  UNK H   1      40.394  11.603 190.167  0.00  0.00    +0.000 A 
ATOM      6  C6  UNK H   1      39.211  11.915 190.970  0.00  0.00    +0.000 A 
ATOM      7  C7  UNK H   1      44.185  12.932 191.257  0.00  0.00    +0.000 C 
ATOM      8  C8  UNK H   1      43.038  13.486 191.997  0.00  0.00    +0.000 C 
ATOM      9  C9  UNK H   1      43.879  12.630 189.791  0.00  0.00    +0.000 C 
ATOM     10  O10 UNK H   1      42.688  11.857 189.688  0.00  0.00    +0.000 OA
ATOM     11  C11 UNK H   1      45.383  13.886 191.570  0.00  0.00    +0.000 C 
ATOM     12  C12 UNK H   1      44.871  14.453 192.863  0.00  0.00    +0.000 C 
ATOM     13  C13 UNK H   1      43.465  14.279 192.980  0.00  0.00    +0.000 C 
ATOM     14  C14 UNK H   1      45.573  15.162 193.738  0.00  0.00    +0.000 C 
ATOM     15  C15 UNK H   1      44.851  15.754 194.876  0.00  0.00    +0.000 C 
ATOM     16  C16 UNK H   1      42.704  14.933 194.042  0.00  0.00    +0.000 C 
ATOM     17  C17 UNK H   1      43.373  15.635 194.960  0.00  0.00    +0.000 C 
ATOM     18  O22 UNK H   1      45.468  16.398 195.732  0.00  0.00    +0.000 OA
ENDROOT
BRANCH   6  19
ATOM     19  O18 UNK H   1      37.976  11.376 190.625  0.00  0.00    +0.000 OA
ATOM     20  H9  UNK H   1      37.225  12.093 190.780  0.00  0.00    +0.000 HD
ENDBRANCH   6  19
BRANCH   5  21
ATOM     21  O19 UNK H   1      40.280  10.779 189.053  0.00  0.00    +0.000 OA
ATOM     22  H10 UNK H   1      41.042  11.007 188.368  0.00  0.00    +0.000 HD
ENDBRANCH   5  21
BRANCH   7  23
ATOM     23  O20 UNK H   1      44.433  11.695 191.929  0.00  0.00    +0.000 OA
ATOM     24  H11 UNK H   1      44.534  10.926 191.221  0.00  0.00    +0.000 HD
ENDBRANCH   7  23
BRANCH  17  25
ATOM     25  O21 UNK H   1      42.685  16.256 195.995  0.00  0.00    +0.000 OA
ATOM     26  H12 UNK H   1      42.272  17.158 195.649  0.00  0.00    +0.000 HD
ENDBRANCH  17  25
TORSDOF 4
ENDMDL
MODEL 7
REMARK VINA RESULT:    -3.753      3.793      6.733
REMARK INTER + INTRA:          -4.631
REMARK INTER:                  -4.631
REMARK INTRA:                   0.000
REMARK UNBOUND:                 0.000
REMARK  Name = Brazilin.pdb
REMARK  4 active torsions:
REMARK  status: ('A' for Active; 'I' for Inactive)
REMARK    1  A    between atoms: C3_3  and  O3_6
REMARK    2  A    between atoms: C4_4  and  O4_7
REMARK    3  A    between atoms: C10_10  and  O1_16
REMARK    4  A    between atoms: C19_19  and  O1_21
REMARK                            x       y       z     vdW  Elec       q    Type
REMARK                         _______ _______ _______ _____ _____    ______ ____
ROOT
ATOM      1 3C45 GLC     4      37.705  15.037 200.902  0.00  0.00    +0.000 A 
ATOM      2  C2  GLC     4      36.594  14.258 201.458  0.00  0.00    +0.000 A 
ATOM      3  C3  GLC     4      36.301  13.094 200.870  0.00  0.00    +0.000 A 
ATOM      4  C4  GLC     4      37.086  12.621 199.722  0.00  0.00    +0.000 A 
ATOM      5  C5  GLC     4      38.109  13.334 199.234  0.00  0.00    +0.000 A 
ATOM      6 3C45 GLC     4      38.410  14.607 199.861  0.00  0.00    +0.000 A 
ATOM      7  C9  GLC     4      39.440  15.666 199.480  0.00  0.00    +0.000 C 
ATOM      8  C10 GLC     4      39.653  16.263 200.835  0.00  0.00    +0.000 C 
ATOM      9  C11 GLC     4      38.187  16.409 201.318  0.00  0.00    +0.000 C 
ATOM     10  C12 GLC     4      40.521  17.516 200.777  0.00  0.00    +0.000 C 
ATOM     11  O13 GLC     4      41.776  17.124 200.215  0.00  0.00    +0.000 OA
ATOM     12  C14 GLC     4      41.913  16.155 199.272  0.00  0.00    +0.000 A 
ATOM     13  C15 GLC     4      40.756  15.350 198.836  0.00  0.00    +0.000 A 
ATOM     14  C17 GLC     4      40.923  14.422 197.897  0.00  0.00    +0.000 A 
ATOM     15  C18 GLC     4      42.249  14.207 197.332  0.00  0.00    +0.000 A 
ATOM     16  C19 GLC     4      43.284  14.937 197.742  0.00  0.00    +0.000 A 
ATOM     17  C20 GLC     4      43.112  15.948 198.746  0.00  0.00    +0.000 A 
ENDROOT
BRANCH   3  18
ATOM     18  O3  GLC     4      35.253  12.294 201.299  0.00  0.00    +0.000 OA
ATOM     19  H3  GLC     4      34.620  12.781 201.904  0.00  0.00    +0.000 HD
ENDBRANCH   3  18
BRANCH   4  20
ATOM     20  O4  GLC     4      36.725  11.422 199.154  0.00  0.00    +0.000 OA
ATOM     21  H4  GLC     4      35.714  11.305 199.217  0.00  0.00    +0.000 HD
ENDBRANCH   4  20
BRANCH   8  22
ATOM     22  O1  GLC     4      40.350  15.316 201.666  0.00  0.00    +0.000 OA
ATOM     23  H10 GLC     4      41.086  15.747 202.152  0.00  0.00    +0.000 HD
ENDBRANCH   8  22
BRANCH  16  24
ATOM     24  O1  GLC     4      44.513  14.735 197.212  0.00  0.00    +0.000 OA
ATOM     25  H14 GLC     4      44.942  15.582 197.149  0.00  0.00    +0.000 HD
ENDBRANCH  16  24
TORSDOF 4
REMARK  Name = HEMCA.pdb
REMARK  4 active torsions:
REMARK  status: ('A' for Active; 'I' for Inactive)
REMARK    1  A    between atoms: C5_5  and  O19_19
REMARK    2  A    between atoms: C6_6  and  O18_18
REMARK    3  A    between atoms: C7_7  and  O20_20
REMARK    4  A    between atoms: C17_17  and  O21_21
REMARK                            x       y       z     vdW  Elec       q    Type
REMARK                         _______ _______ _______ _____ _____    ______ ____
ROOT
ATOM      1  C1  UNK H   1      36.137  16.568 197.900  0.00  0.00    +0.000 A 
ATOM      2  C2  UNK H   1      35.452  15.430 197.787  0.00  0.00    +0.000 A 
ATOM      3  C3  UNK H   1      35.659  17.626 198.812  0.00  0.00    +0.000 A 
ATOM      4  C4  UNK H   1      34.221  15.236 198.554  0.00  0.00    +0.000 A 
ATOM      5  C5  UNK H   1      34.532  17.448 199.497  0.00  0.00    +0.000 A 
ATOM      6  C6  UNK H   1      33.779  16.200 199.360  0.00  0.00    +0.000 A 
ATOM      7  C7  UNK H   1      37.896  18.231 197.175  0.00  0.00    +0.000 C 
ATOM      8  C8  UNK H   1      37.347  16.865 197.127  0.00  0.00    +0.000 C 
ATOM      9  C9  UNK H   1      37.740  18.906 198.537  0.00  0.00    +0.000 C 
ATOM     10  O10 UNK H   1      36.392  18.800 198.984  0.00  0.00    +0.000 OA
ATOM     11  C11 UNK H   1      39.335  18.123 196.576  0.00  0.00    +0.000 C 
ATOM     12  C12 UNK H   1      39.137  16.871 195.770  0.00  0.00    +0.000 C 
ATOM     13  C13 UNK H   1      38.017  16.132 196.237  0.00  0.00    +0.000 C 
ATOM     14  C14 UNK H   1      39.960  16.401 194.840  0.00  0.00    +0.000 C 
ATOM     15  C15 UNK H   1      39.661  15.080 194.267  0.00  0.00    +0.000 C 
ATOM     16  C16 UNK H   1      37.748  14.777 195.759  0.00  0.00    +0.000 C 
ATOM     17  C17 UNK H   1      38.534  14.275 194.804  0.00  0.00    +0.000 C 
ATOM     18  O22 UNK H   1      40.382  14.615 193.377  0.00  0.00    +0.000 OA
ENDROOT
BRANCH   6  19
ATOM     19  O18 UNK H   1      32.607  16.013 200.086  0.00  0.00    +0.000 OA
ATOM     20  H9  UNK H   1      32.737  16.383 201.061  0.00  0.00    +0.000 HD
ENDBRANCH   6  19
BRANCH   5  21
ATOM     21  O19 UNK H   1      34.083  18.438 200.362  0.00  0.00    +0.000 OA
ATOM     22  H10 UNK H   1      34.704  18.474 201.208  0.00  0.00    +0.000 HD
ENDBRANCH   5  21
BRANCH   7  23
ATOM     23  O20 UNK H   1      37.088  18.934 196.229  0.00  0.00    +0.000 OA
ATOM     24  H11 UNK H   1      36.102  18.578 196.276  0.00  0.00    +0.000 HD
ENDBRANCH   7  23
BRANCH  17  25
ATOM     25  O21 UNK H   1      38.298  12.997 194.313  0.00  0.00    +0.000 OA
ATOM     26  H12 UNK H   1      38.887  12.305 194.840  0.00  0.00    +0.000 HD
ENDBRANCH  17  25
TORSDOF 4
ENDMDL
MODEL 8
REMARK VINA RESULT:    -3.753      2.722      3.916
REMARK INTER + INTRA:          -4.631
REMARK INTER:                  -4.631
REMARK INTRA:                   0.000
REMARK UNBOUND:                 0.000
REMARK  Name = Brazilin.pdb
REMARK  4 active torsions:
REMARK  status: ('A' for Active; 'I' for Inactive)
REMARK    1  A    between atoms: C3_3  and  O3_6
REMARK    2  A    between atoms: C4_4  and  O4_7
REMARK    3  A    between atoms: C10_10  and  O1_16
REMARK    4  A    between atoms: C19_19  and  O1_21
REMARK                            x       y       z     vdW  Elec       q    Type
REMARK                         _______ _______ _______ _____ _____    ______ ____
ROOT
ATOM      1 3C45 GLC     4      38.983  17.408 195.667  0.00  0.00    +0.000 A 
ATOM      2  C2  GLC     4      38.743  16.201 196.466  0.00  0.00    +0.000 A 
ATOM      3  C3  GLC     4      39.766  15.358 196.632  0.00  0.00    +0.000 A 
ATOM      4  C4  GLC     4      41.080  15.655 196.046  0.00  0.00    +0.000 A 
ATOM      5  C5  GLC     4      41.290  16.769 195.332  0.00  0.00    +0.000 A 
ATOM      6 3C45 GLC     4      40.172  17.670 195.135  0.00  0.00    +0.000 A 
ATOM      7  C9  GLC     4      40.080  18.950 194.310  0.00  0.00    +0.000 C 
ATOM      8  C10 GLC     4      38.999  19.636 195.085  0.00  0.00    +0.000 C 
ATOM      9  C11 GLC     4      37.989  18.472 195.258  0.00  0.00    +0.000 C 
ATOM     10  C12 GLC     4      38.521  20.909 194.395  0.00  0.00    +0.000 C 
ATOM     11  O13 GLC     4      39.658  21.769 194.280  0.00  0.00    +0.000 OA
ATOM     12  C14 GLC     4      40.927  21.323 194.087  0.00  0.00    +0.000 A 
ATOM     13  C15 GLC     4      41.235  19.881 194.090  0.00  0.00    +0.000 A 
ATOM     14  C17 GLC     4      42.485  19.480 193.879  0.00  0.00    +0.000 A 
ATOM     15  C18 GLC     4      43.529  20.474 193.666  0.00  0.00    +0.000 A 
ATOM     16  C19 GLC     4      43.235  21.773 193.673  0.00  0.00    +0.000 A 
ATOM     17  C20 GLC     4      41.887  22.215 193.889  0.00  0.00    +0.000 A 
ENDROOT
BRANCH   3  18
ATOM     18  O3  GLC     4      39.640  14.176 197.346  0.00  0.00    +0.000 OA
ATOM     19  H3  GLC     4      39.463  14.332 198.320  0.00  0.00    +0.000 HD
ENDBRANCH   3  18
BRANCH   4  20
ATOM     20  O4  GLC     4      42.088  14.741 196.242  0.00  0.00    +0.000 OA
ATOM     21  H4  GLC     4      42.718  14.751 195.441  0.00  0.00    +0.000 HD
ENDBRANCH   4  20
BRANCH   8  22
ATOM     22  O1  GLC     4      39.515  20.031 196.370  0.00  0.00    +0.000 OA
ATOM     23  H10 GLC     4      39.247  20.948 196.591  0.00  0.00    +0.000 HD
ENDBRANCH   8  22
BRANCH  16  24
ATOM     24  O1  GLC     4      44.208  22.693 193.472  0.00  0.00    +0.000 OA
ATOM     25  H14 GLC     4      44.453  23.042 194.322  0.00  0.00    +0.000 HD
ENDBRANCH  16  24
TORSDOF 4
REMARK  Name = HEMCA.pdb
REMARK  4 active torsions:
REMARK  status: ('A' for Active; 'I' for Inactive)
REMARK    1  A    between atoms: C5_5  and  O19_19
REMARK    2  A    between atoms: C6_6  and  O18_18
REMARK    3  A    between atoms: C7_7  and  O20_20
REMARK    4  A    between atoms: C17_17  and  O21_21
REMARK                            x       y       z     vdW  Elec       q    Type
REMARK                         _______ _______ _______ _____ _____    ______ ____
ROOT
ATOM      1  C1  UNK H   1      38.874  16.064 192.204  0.00  0.00    +0.000 A 
ATOM      2  C2  UNK H   1      39.445  14.970 192.705  0.00  0.00    +0.000 A 
ATOM      3  C3  UNK H   1      37.410  16.235 192.289  0.00  0.00    +0.000 A 
ATOM      4  C4  UNK H   1      38.621  13.932 193.328  0.00  0.00    +0.000 A 
ATOM      5  C5  UNK H   1      36.665  15.281 192.844  0.00  0.00    +0.000 A 
ATOM      6  C6  UNK H   1      37.298  14.077 193.385  0.00  0.00    +0.000 A 
ATOM      7  C7  UNK H   1      38.863  18.177 190.816  0.00  0.00    +0.000 C 
ATOM      8  C8  UNK H   1      39.619  17.124 191.515  0.00  0.00    +0.000 C 
ATOM      9  C9  UNK H   1      37.562  18.564 191.518  0.00  0.00    +0.000 C 
ATOM     10  O10 UNK H   1      36.802  17.399 191.818  0.00  0.00    +0.000 OA
ATOM     11  C11 UNK H   1      39.899  19.310 190.524  0.00  0.00    +0.000 C 
ATOM     12  C12 UNK H   1      41.147  18.475 190.575  0.00  0.00    +0.000 C 
ATOM     13  C13 UNK H   1      40.924  17.260 191.278  0.00  0.00    +0.000 C 
ATOM     14  C14 UNK H   1      42.354  18.847 190.167  0.00  0.00    +0.000 C 
ATOM     15  C15 UNK H   1      43.479  17.938 190.437  0.00  0.00    +0.000 C 
ATOM     16  C16 UNK H   1      42.032  16.382 191.647  0.00  0.00    +0.000 C 
ATOM     17  C17 UNK H   1      43.260  16.704 191.234  0.00  0.00    +0.000 C 
ATOM     18  O22 UNK H   1      44.616  18.229 190.050  0.00  0.00    +0.000 OA
ENDROOT
BRANCH   6  19
ATOM     19  O18 UNK H   1      36.517  13.088 193.974  0.00  0.00    +0.000 OA
ATOM     20  H9  UNK H   1      35.538  13.447 194.104  0.00  0.00    +0.000 HD
ENDBRANCH   6  19
BRANCH   5  21
ATOM     21  O19 UNK H   1      35.288  15.442 192.933  0.00  0.00    +0.000 OA
ATOM     22  H10 UNK H   1      34.922  15.842 192.034  0.00  0.00    +0.000 HD
ENDBRANCH   5  21
BRANCH   7  23
ATOM     23  O20 UNK H   1      38.536  17.562 189.569  0.00  0.00    +0.000 OA
ATOM     24  H11 UNK H   1      38.611  18.271 188.798  0.00  0.00    +0.000 HD
ENDBRANCH   7  23
BRANCH  17  25
ATOM     25  O21 UNK H   1      44.336  15.883 191.551  0.00  0.00    +0.000 OA
ATOM     26  H12 UNK H   1      45.232  16.413 191.415  0.00  0.00    +0.000 HD
ENDBRANCH  17  25
TORSDOF 4
ENDMDL
MODEL 9
REMARK VINA RESULT:    -3.753      5.751      9.369
REMARK INTER + INTRA:          -4.631
REMARK INTER:                  -4.631
REMARK INTRA:                   0.000
REMARK UNBOUND:                 0.000
REMARK  Name = Brazilin.pdb
REMARK  4 active torsions:
REMARK  status: ('A' for Active; 'I' for Inactive)
REMARK    1  A    between atoms: C3_3  and  O3_6
REMARK    2  A    between atoms: C4_4  and  O4_7
REMARK    3  A    between atoms: C10_10  and  O1_16
REMARK    4  A    between atoms: C19_19  and  O1_21
REMARK                            x       y       z     vdW  Elec       q    Type
REMARK                         _______ _______ _______ _____ _____    ______ ____
ROOT
ATOM      1 3C45 GLC     4      37.329  14.726 198.502  0.00  0.00    +0.000 A 
ATOM      2  C2  GLC     4      38.060  13.454 198.467  0.00  0.00    +0.000 A 
ATOM      3  C3  GLC     4      37.727  12.578 197.514  0.00  0.00    +0.000 A 
ATOM      4  C4  GLC     4      36.679  12.901 196.536  0.00  0.00    +0.000 A 
ATOM      5  C5  GLC     4      36.032  14.073 196.569  0.00  0.00    +0.000 A 
ATOM      6 3C45 GLC     4      36.380  15.013 197.617  0.00  0.00    +0.000 A 
ATOM      7  C9  GLC     4      35.767  16.367 197.961  0.00  0.00    +0.000 C 
ATOM      8  C10 GLC     4      36.967  16.998 198.593  0.00  0.00    +0.000 C 
ATOM      9  C11 GLC     4      37.447  15.846 199.512  0.00  0.00    +0.000 C 
ATOM     10  C12 GLC     4      36.635  18.341 199.235  0.00  0.00    +0.000 C 
ATOM     11  O13 GLC     4      36.132  19.184 198.194  0.00  0.00    +0.000 OA
ATOM     12  C14 GLC     4      35.402  18.732 197.141  0.00  0.00    +0.000 A 
ATOM     13  C15 GLC     4      35.167  17.289 196.943  0.00  0.00    +0.000 A 
ATOM     14  C17 GLC     4      34.432  16.883 195.911  0.00  0.00    +0.000 A 
ATOM     15  C18 GLC     4      33.890  17.871 194.987  0.00  0.00    +0.000 A 
ATOM     16  C19 GLC     4      34.117  19.169 195.177  0.00  0.00    +0.000 A 
ATOM     17  C20 GLC     4      34.899  19.618 196.293  0.00  0.00    +0.000 A 
ENDROOT
BRANCH   3  18
ATOM     18  O3  GLC     4      38.335  11.336 197.409  0.00  0.00    +0.000 OA
ATOM     19  H3  GLC     4      39.294  11.352 197.702  0.00  0.00    +0.000 HD
ENDBRANCH   3  18
BRANCH   4  20
ATOM     20  O4  GLC     4      36.375  11.952 195.591  0.00  0.00    +0.000 OA
ATOM     21  H4  GLC     4      36.488  12.350 194.659  0.00  0.00    +0.000 HD
ENDBRANCH   4  20
BRANCH   8  22
ATOM     22  O1  GLC     4      37.955  17.259 197.578  0.00  0.00    +0.000 OA
ATOM     23  H10 GLC     4      38.007  18.216 197.374  0.00  0.00    +0.000 HD
ENDBRANCH   8  22
BRANCH  16  24
ATOM     24  O1  GLC     4      33.609  20.083 194.317  0.00  0.00    +0.000 OA
ATOM     25  H14 GLC     4      32.732  20.301 194.614  0.00  0.00    +0.000 HD
ENDBRANCH  16  24
TORSDOF 4
REMARK  Name = HEMCA.pdb
REMARK  4 active torsions:
REMARK  status: ('A' for Active; 'I' for Inactive)
REMARK    1  A    between atoms: C5_5  and  O19_19
REMARK    2  A    between atoms: C6_6  and  O18_18
REMARK    3  A    between atoms: C7_7  and  O20_20
REMARK    4  A    between atoms: C17_17  and  O21_21
REMARK                            x       y       z     vdW  Elec       q    Type
REMARK                         _______ _______ _______ _____ _____    ______ ____
ROOT
ATOM      1  C1  UNK H   1      34.120  13.720 200.083  0.00  0.00    +0.000 A 
ATOM      2  C2  UNK H   1      34.257  12.571 199.422  0.00  0.00    +0.000 A 
ATOM      3  C3  UNK H   1      34.810  13.912 201.374  0.00  0.00    +0.000 A 
ATOM      4  C4  UNK H   1      35.078  11.496 199.982  0.00  0.00    +0.000 A 
ATOM      5  C5  UNK H   1      35.545  12.926 201.883  0.00  0.00    +0.000 A 
ATOM      6  C6  UNK H   1      35.683  11.663 201.157  0.00  0.00    +0.000 A 
ATOM      7  C7  UNK H   1      33.029  15.955 200.532  0.00  0.00    +0.000 C 
ATOM      8  C8  UNK H   1      33.272  14.824 199.621  0.00  0.00    +0.000 C 
ATOM      9  C9  UNK H   1      34.229  16.301 201.412  0.00  0.00    +0.000 C 
ATOM     10  O10 UNK H   1      34.722  15.128 202.052  0.00  0.00    +0.000 OA
ATOM     11  C11 UNK H   1      32.428  17.088 199.640  0.00  0.00    +0.000 C 
ATOM     12  C12 UNK H   1      31.898  16.227 198.530  0.00  0.00    +0.000 C 
ATOM     13  C13 UNK H   1      32.533  14.955 198.518  0.00  0.00    +0.000 C 
ATOM     14  C14 UNK H   1      31.063  16.610 197.573  0.00  0.00    +0.000 C 
ATOM     15  C15 UNK H   1      30.777  15.656 196.490  0.00  0.00    +0.000 C 
ATOM     16  C16 UNK H   1      32.347  14.022 197.409  0.00  0.00    +0.000 C 
ATOM     17  C17 UNK H   1      31.494  14.357 196.438  0.00  0.00    +0.000 C 
ATOM     18  O22 UNK H   1      29.982  15.959 195.593  0.00  0.00    +0.000 OA
ENDROOT
BRANCH   6  19
ATOM     19  O18 UNK H   1      36.461  10.639 201.688  0.00  0.00    +0.000 OA
ATOM     20  H9  UNK H   1      37.333  10.527 201.114  0.00  0.00    +0.000 HD
ENDBRANCH   6  19
BRANCH   5  21
ATOM     21  O19 UNK H   1      36.202  13.107 203.094  0.00  0.00    +0.000 OA
ATOM     22  H10 UNK H   1      36.884  12.323 203.244  0.00  0.00    +0.000 HD
ENDBRANCH   5  21
BRANCH   7  23
ATOM     23  O20 UNK H   1      31.981  15.469 201.373  0.00  0.00    +0.000 OA
ATOM     24  H11 UNK H   1      31.173  15.154 200.780  0.00  0.00    +0.000 HD
ENDBRANCH   7  23
BRANCH  17  25
ATOM     25  O21 UNK H   1      31.278  13.487 195.376  0.00  0.00    +0.000 OA
ATOM     26  H12 UNK H   1      31.413  14.000 194.470  0.00  0.00    +0.000 HD
ENDBRANCH  17  25
TORSDOF 4
ENDMDL
