MODEL 1
REMARK VINA RESULT:    -3.555      0.000      0.000
REMARK INTER + INTRA:          -5.077
REMARK INTER:                  -4.906
REMARK INTRA:                  -0.171
REMARK UNBOUND:                -0.171
REMARK  Name = HEMCA.pdb
REMARK  4 active torsions:
REMARK  status: ('A' for Active; 'I' for Inactive)
REMARK    1  A    between atoms: C5_5  and  O19_19
REMARK    2  A    between atoms: C6_6  and  O18_18
REMARK    3  A    between atoms: C7_7  and  O20_20
REMARK    4  A    between atoms: C17_17  and  O21_21
REMARK                            x       y       z     vdW  Elec       q    Type
REMARK                         _______ _______ _______ _____ _____    ______ ____
ROOT
ATOM      1  C1  UNK H   1      40.868  14.698 194.191  0.00  0.00    +0.000 A 
ATOM      2  C2  UNK H   1      39.868  14.088 194.826  0.00  0.00    +0.000 A 
ATOM      3  C3  UNK H   1      42.148  13.992 193.986  0.00  0.00    +0.000 A 
ATOM      4  C4  UNK H   1      40.043  12.725 195.330  0.00  0.00    +0.000 A 
ATOM      5  C5  UNK H   1      42.305  12.758 194.459  0.00  0.00    +0.000 A 
ATOM      6  C6  UNK H   1      41.205  12.096 195.164  0.00  0.00    +0.000 A 
ATOM      7  C7  UNK H   1      42.027  16.720 193.213  0.00  0.00    +0.000 C 
ATOM      8  C8  UNK H   1      40.796  16.080 193.705  0.00  0.00    +0.000 C 
ATOM      9  C9  UNK H   1      42.967  15.759 192.485  0.00  0.00    +0.000 C 
ATOM     10  O10 UNK H   1      43.187  14.596 193.277  0.00  0.00    +0.000 OA
ATOM     11  C11 UNK H   1      41.557  17.998 192.447  0.00  0.00    +0.000 C 
ATOM     12  C12 UNK H   1      40.228  18.175 193.125  0.00  0.00    +0.000 C 
ATOM     13  C13 UNK H   1      39.799  16.966 193.739  0.00  0.00    +0.000 C 
ATOM     14  C14 UNK H   1      39.452  19.249 193.057  0.00  0.00    +0.000 C 
ATOM     15  C15 UNK H   1      38.118  19.171 193.674  0.00  0.00    +0.000 C 
ATOM     16  C16 UNK H   1      38.447  16.824 194.274  0.00  0.00    +0.000 C 
ATOM     17  C17 UNK H   1      37.642  17.888 194.250  0.00  0.00    +0.000 C 
ATOM     18  O22 UNK H   1      37.373  20.157 193.661  0.00  0.00    +0.000 OA
ENDROOT
BRANCH   6  19
ATOM     19  O18 UNK H   1      41.370  10.803 195.647  0.00  0.00    +0.000 OA
ATOM     20  H9  UNK H   1      41.719  10.840 196.637  0.00  0.00    +0.000 HD
ENDBRANCH   6  19
BRANCH   5  21
ATOM     21  O19 UNK H   1      43.506  12.087 194.261  0.00  0.00    +0.000 OA
ATOM     22  H10 UNK H   1      44.300  12.681 194.605  0.00  0.00    +0.000 HD
ENDBRANCH   5  21
BRANCH   7  23
ATOM     23  O20 UNK H   1      42.668  17.150 194.416  0.00  0.00    +0.000 OA
ATOM     24  H11 UNK H   1      43.589  16.657 194.518  0.00  0.00    +0.000 HD
ENDBRANCH   7  23
BRANCH  17  25
ATOM     25  O21 UNK H   1      36.355  17.795 194.766  0.00  0.00    +0.000 OA
ATOM     26  H12 UNK H   1      35.914  16.896 194.448  0.00  0.00    +0.000 HD
ENDBRANCH  17  25
TORSDOF 4
REMARK  Name = TETCA.pdb
REMARK  10 active torsions:
REMARK  status: ('A' for Active; 'I' for Inactive)
REMARK    1  A    between atoms: O1_1  and  C14_14
REMARK    2  A    between atoms: O2_2  and  C16_16
REMARK    3  A    between atoms: O4_4  and  C19_19
REMARK    4  A    between atoms: O5_5  and  C22_22
REMARK    5  A    between atoms: O7_7  and  C29_29
REMARK    6  A    between atoms: N9_9  and  C15_15
REMARK    7  A    between atoms: N9_9  and  C27_27
REMARK    8  A    between atoms: N9_9  and  C28_28
REMARK    9  A    between atoms: C16_16  and  C25_25
REMARK   10  A    between atoms: C23_23  and  C30_30
REMARK                            x       y       z     vdW  Elec       q    Type
REMARK                         _______ _______ _______ _____ _____    ______ ____
ROOT
ATOM      1  O3  UNK T   1      33.593  13.302 193.766  0.00  0.00    +0.000 OA
ATOM      2  O6  UNK T   1      38.053  13.335 198.539  0.00  0.00    +0.000 OA
ATOM      3  C11 UNK T   1      35.866  11.770 196.132  0.00  0.00    +0.000 C 
ATOM      4  C12 UNK T   1      36.543  11.442 193.694  0.00  0.00    +0.000 C 
ATOM      5  C13 UNK T   1      37.050  11.547 195.143  0.00  0.00    +0.000 C 
ATOM      6  C14 UNK T   1      34.964  12.979 195.764  0.00  0.00    +0.000 C 
ATOM      7  C15 UNK T   1      36.415  11.894 197.564  0.00  0.00    +0.000 C 
ATOM      8  C16 UNK T   1      37.598  11.051 192.618  0.00  0.00    +0.000 C 
ATOM      9  C17 UNK T   1      35.861  12.741 193.391  0.00  0.00    +0.000 C 
ATOM     10  C18 UNK T   1      34.684  13.021 194.253  0.00  0.00    +0.000 C 
ATOM     11  C19 UNK T   1      35.538  14.316 196.197  0.00  0.00    +0.000 C 
ATOM     12  C20 UNK T   1      38.305  12.259 192.003  0.00  0.00    +0.000 A 
ATOM     13  C21 UNK T   1      37.097  13.232 197.769  0.00  0.00    +0.000 C 
ATOM     14  C22 UNK T   1      36.324  13.685 192.560  0.00  0.00    +0.000 C 
ATOM     15  C23 UNK T   1      36.555  14.447 197.074  0.00  0.00    +0.000 C 
ATOM     16  C24 UNK T   1      37.659  13.515 191.942  0.00  0.00    +0.000 A 
ATOM     17  C25 UNK T   1      36.913  10.278 191.474  0.00  0.00    +0.000 C 
ATOM     18  C26 UNK T   1      39.581  12.109 191.425  0.00  0.00    +0.000 A 
ATOM     19  C29 UNK T   1      38.336  14.592 191.342  0.00  0.00    +0.000 A 
ATOM     20  C31 UNK T   1      40.227  13.185 190.825  0.00  0.00    +0.000 A 
ATOM     21  C32 UNK T   1      39.607  14.428 190.787  0.00  0.00    +0.000 A 
ENDROOT
BRANCH  15  24
ATOM     22  O8  UNK T   1      36.421  16.752 197.553  0.00  0.00    +0.000 OA
ATOM     23  N10 UNK T   1      38.501  15.755 197.461  0.00  0.00    +0.000 N 
ATOM     24  C30 UNK T   1      37.131  15.767 197.386  0.00  0.00    +0.000 C 
ATOM     25  H54 UNK T   1      39.049  16.587 197.661  0.00  0.00    +0.000 HD
ATOM     26  H55 UNK T   1      39.022  14.898 197.310  0.00  0.00    +0.000 HD
ENDBRANCH  15  24
BRANCH   7  27
ATOM     27  N9  UNK T   1      35.376  11.798 198.586  0.00  0.00    +0.000 NA
ATOM     28  C27 UNK T   1      34.746  10.479 198.550  0.00  0.00    +0.000 C 
ATOM     29  C28 UNK T   1      35.938  12.062 199.909  0.00  0.00    +0.000 C 
ENDBRANCH   7  27
BRANCH   6  30
ATOM     30  O1  UNK T   1      33.692  12.849 196.398  0.00  0.00    +0.000 OA
ATOM     31  H41 UNK T   1      33.815  12.808 197.361  0.00  0.00    +0.000 HD
ENDBRANCH   6  30
BRANCH   8  32
ATOM     32  O2  UNK T   1      38.535  10.142 193.207  0.00  0.00    +0.000 OA
ATOM     33  H42 UNK T   1      38.830   9.524 192.517  0.00  0.00    +0.000 HD
ENDBRANCH   8  32
BRANCH  11  34
ATOM     34  O4  UNK T   1      34.896  15.393 195.604  0.00  0.00    +0.000 OA
ATOM     35  H50 UNK T   1      35.294  15.577 194.738  0.00  0.00    +0.000 HD
ENDBRANCH  11  34
BRANCH  14  36
ATOM     36  O5  UNK T   1      35.635  14.864 192.354  0.00  0.00    +0.000 OA
ATOM     37  H51 UNK T   1      36.259  15.589 192.192  0.00  0.00    +0.000 HD
ENDBRANCH  14  36
BRANCH  19  38
ATOM     38  O7  UNK T   1      37.798  15.844 191.236  0.00  0.00    +0.000 OA
ATOM     39  H56 UNK T   1      38.106  16.268 190.418  0.00  0.00    +0.000 HD
ENDBRANCH  19  38
TORSDOF 7
ENDMDL
MODEL 2
REMARK VINA RESULT:    -3.553      2.630      6.335
REMARK INTER + INTRA:          -5.074
REMARK INTER:                  -4.903
REMARK INTRA:                  -0.171
REMARK UNBOUND:                -0.171
REMARK  Name = HEMCA.pdb
REMARK  4 active torsions:
REMARK  status: ('A' for Active; 'I' for Inactive)
REMARK    1  A    between atoms: C5_5  and  O19_19
REMARK    2  A    between atoms: C6_6  and  O18_18
REMARK    3  A    between atoms: C7_7  and  O20_20
REMARK    4  A    between atoms: C17_17  and  O21_21
REMARK                            x       y       z     vdW  Elec       q    Type
REMARK                         _______ _______ _______ _____ _____    ______ ____
ROOT
ATOM      1  C1  UNK H   1      40.664  16.706 195.793  0.00  0.00    +0.000 A 
ATOM      2  C2  UNK H   1      39.822  15.686 195.632  0.00  0.00    +0.000 A 
ATOM      3  C3  UNK H   1      40.188  17.963 196.404  0.00  0.00    +0.000 A 
ATOM      4  C4  UNK H   1      38.424  15.816 196.046  0.00  0.00    +0.000 A 
ATOM      5  C5  UNK H   1      38.912  18.079 196.766  0.00  0.00    +0.000 A 
ATOM      6  C6  UNK H   1      37.990  16.958 196.577  0.00  0.00    +0.000 A 
ATOM      7  C7  UNK H   1      42.838  17.931 195.389  0.00  0.00    +0.000 C 
ATOM      8  C8  UNK H   1      42.064  16.678 195.355  0.00  0.00    +0.000 C 
ATOM      9  C9  UNK H   1      42.479  18.840 196.564  0.00  0.00    +0.000 C 
ATOM     10  O10 UNK H   1      41.068  19.021 196.630  0.00  0.00    +0.000 OA
ATOM     11  C11 UNK H   1      44.332  17.502 195.229  0.00  0.00    +0.000 C 
ATOM     12  C12 UNK H   1      44.102  16.179 194.556  0.00  0.00    +0.000 C 
ATOM     13  C13 UNK H   1      42.779  15.711 194.780  0.00  0.00    +0.000 C 
ATOM     14  C14 UNK H   1      45.024  15.439 193.953  0.00  0.00    +0.000 C 
ATOM     15  C15 UNK H   1      44.628  14.102 193.482  0.00  0.00    +0.000 C 
ATOM     16  C16 UNK H   1      42.381  14.354 194.411  0.00  0.00    +0.000 C 
ATOM     17  C17 UNK H   1      43.268  13.584 193.779  0.00  0.00    +0.000 C 
ATOM     18  O22 UNK H   1      45.444  13.389 192.889  0.00  0.00    +0.000 OA
ENDROOT
BRANCH   6  19
ATOM     19  O18 UNK H   1      36.661  17.080 196.967  0.00  0.00    +0.000 OA
ATOM     20  H9  UNK H   1      36.612  17.228 198.007  0.00  0.00    +0.000 HD
ENDBRANCH   6  19
BRANCH   5  21
ATOM     21  O19 UNK H   1      38.462  19.258 197.348  0.00  0.00    +0.000 OA
ATOM     22  H10 UNK H   1      39.207  19.994 197.271  0.00  0.00    +0.000 HD
ENDBRANCH   5  21
BRANCH   7  23
ATOM     23  O20 UNK H   1      42.445  18.583 194.180  0.00  0.00    +0.000 OA
ATOM     24  H11 UNK H   1      43.300  18.873 193.644  0.00  0.00    +0.000 HD
ENDBRANCH   7  23
BRANCH  17  25
ATOM     25  O21 UNK H   1      42.919  12.294 193.398  0.00  0.00    +0.000 OA
ATOM     26  H12 UNK H   1      43.206  12.133 192.400  0.00  0.00    +0.000 HD
ENDBRANCH  17  25
TORSDOF 4
REMARK  Name = TETCA.pdb
REMARK  10 active torsions:
REMARK  status: ('A' for Active; 'I' for Inactive)
REMARK    1  A    between atoms: O1_1  and  C14_14
REMARK    2  A    between atoms: O2_2  and  C16_16
REMARK    3  A    between atoms: O4_4  and  C19_19
REMARK    4  A    between atoms: O5_5  and  C22_22
REMARK    5  A    between atoms: O7_7  and  C29_29
REMARK    6  A    between atoms: N9_9  and  C15_15
REMARK    7  A    between atoms: N9_9  and  C27_27
REMARK    8  A    between atoms: N9_9  and  C28_28
REMARK    9  A    between atoms: C16_16  and  C25_25
REMARK   10  A    between atoms: C23_23  and  C30_30
REMARK                            x       y       z     vdW  Elec       q    Type
REMARK                         _______ _______ _______ _____ _____    ______ ____
ROOT
ATOM      1  O3  UNK T   1      39.988   9.395 196.844  0.00  0.00    +0.000 OA
ATOM      2  O6  UNK T   1      37.045  13.842 193.073  0.00  0.00    +0.000 OA
ATOM      3  C11 UNK T   1      37.287  11.615 195.901  0.00  0.00    +0.000 C 
ATOM      4  C12 UNK T   1      38.465  12.286 198.063  0.00  0.00    +0.000 C 
ATOM      5  C13 UNK T   1      37.669  12.793 196.847  0.00  0.00    +0.000 C 
ATOM      6  C14 UNK T   1      38.499  10.751 195.459  0.00  0.00    +0.000 C 
ATOM      7  C15 UNK T   1      36.517  12.164 194.689  0.00  0.00    +0.000 C 
ATOM      8  C16 UNK T   1      38.768  13.332 199.177  0.00  0.00    +0.000 C 
ATOM      9  C17 UNK T   1      39.704  11.646 197.519  0.00  0.00    +0.000 C 
ATOM     10  C18 UNK T   1      39.444  10.476 196.641  0.00  0.00    +0.000 C 
ATOM     11  C19 UNK T   1      39.297  11.365 194.323  0.00  0.00    +0.000 C 
ATOM     12  C20 UNK T   1      40.084  14.077 198.960  0.00  0.00    +0.000 A 
ATOM     13  C21 UNK T   1      37.448  12.885 193.736  0.00  0.00    +0.000 C 
ATOM     14  C22 UNK T   1      40.945  12.139 197.628  0.00  0.00    +0.000 C 
ATOM     15  C23 UNK T   1      38.851  12.382 193.558  0.00  0.00    +0.000 C 
ATOM     16  C24 UNK T   1      41.144  13.470 198.247  0.00  0.00    +0.000 A 
ATOM     17  C25 UNK T   1      38.850  12.626 200.544  0.00  0.00    +0.000 C 
ATOM     18  C26 UNK T   1      40.276  15.349 199.534  0.00  0.00    +0.000 A 
ATOM     19  C29 UNK T   1      42.348  14.181 198.095  0.00  0.00    +0.000 A 
ATOM     20  C31 UNK T   1      41.481  16.029 199.382  0.00  0.00    +0.000 A 
ATOM     21  C32 UNK T   1      42.515  15.448 198.660  0.00  0.00    +0.000 A 
ENDROOT
BRANCH  15  24
ATOM     22  O8  UNK T   1      40.413  12.318 191.792  0.00  0.00    +0.000 OA
ATOM     23  N10 UNK T   1      39.620  14.368 192.500  0.00  0.00    +0.000 N 
ATOM     24  C30 UNK T   1      39.707  12.998 192.529  0.00  0.00    +0.000 C 
ATOM     25  H54 UNK T   1      40.153  14.941 191.853  0.00  0.00    +0.000 HD
ATOM     26  H55 UNK T   1      39.012  14.863 193.144  0.00  0.00    +0.000 HD
ENDBRANCH  15  24
BRANCH   7  27
ATOM     27  N9  UNK T   1      35.856  11.120 193.910  0.00  0.00    +0.000 NA
ATOM     28  C27 UNK T   1      34.838  10.448 194.716  0.00  0.00    +0.000 C 
ATOM     29  C28 UNK T   1      35.260  11.687 192.701  0.00  0.00    +0.000 C 
ENDBRANCH   7  27
BRANCH   6  30
ATOM     30  O1  UNK T   1      38.049   9.474 195.007  0.00  0.00    +0.000 OA
ATOM     31  H41 UNK T   1      37.221   9.245 195.462  0.00  0.00    +0.000 HD
ENDBRANCH   6  30
BRANCH   8  32
ATOM     32  O2  UNK T   1      37.663  14.239 199.263  0.00  0.00    +0.000 OA
ATOM     33  H42 UNK T   1      37.201  14.235 198.407  0.00  0.00    +0.000 HD
ENDBRANCH   8  32
BRANCH  11  34
ATOM     34  O4  UNK T   1      40.531  10.757 194.144  0.00  0.00    +0.000 OA
ATOM     35  H50 UNK T   1      40.644  10.046 194.794  0.00  0.00    +0.000 HD
ENDBRANCH  11  34
BRANCH  14  36
ATOM     36  O5  UNK T   1      42.031  11.488 197.078  0.00  0.00    +0.000 OA
ATOM     37  H51 UNK T   1      42.853  11.925 197.349  0.00  0.00    +0.000 HD
ENDBRANCH  14  36
BRANCH  19  38
ATOM     38  O7  UNK T   1      43.428  13.682 197.423  0.00  0.00    +0.000 OA
ATOM     39  H56 UNK T   1      43.616  12.777 197.724  0.00  0.00    +0.000 HD
ENDBRANCH  19  38
TORSDOF 7
ENDMDL
MODEL 3
REMARK VINA RESULT:    -3.553      3.237      8.169
REMARK INTER + INTRA:          -5.074
REMARK INTER:                  -4.902
REMARK INTRA:                  -0.171
REMARK UNBOUND:                -0.171
REMARK  Name = HEMCA.pdb
REMARK  4 active torsions:
REMARK  status: ('A' for Active; 'I' for Inactive)
REMARK    1  A    between atoms: C5_5  and  O19_19
REMARK    2  A    between atoms: C6_6  and  O18_18
REMARK    3  A    between atoms: C7_7  and  O20_20
REMARK    4  A    between atoms: C17_17  and  O21_21
REMARK                            x       y       z     vdW  Elec       q    Type
REMARK                         _______ _______ _______ _____ _____    ______ ____
ROOT
ATOM      1  C1  UNK H   1      34.717  16.560 198.727  0.00  0.00    +0.000 A 
ATOM      2  C2  UNK H   1      35.151  17.252 197.674  0.00  0.00    +0.000 A 
ATOM      3  C3  UNK H   1      33.306  16.132 198.794  0.00  0.00    +0.000 A 
ATOM      4  C4  UNK H   1      34.227  17.598 196.593  0.00  0.00    +0.000 A 
ATOM      5  C5  UNK H   1      32.468  16.462 197.813  0.00  0.00    +0.000 A 
ATOM      6  C6  UNK H   1      32.949  17.230 196.664  0.00  0.00    +0.000 A 
ATOM      7  C7  UNK H   1      34.924  15.644 201.073  0.00  0.00    +0.000 C 
ATOM      8  C8  UNK H   1      35.561  16.221 199.878  0.00  0.00    +0.000 C 
ATOM      9  C9  UNK H   1      33.751  14.718 200.755  0.00  0.00    +0.000 C 
ATOM     10  O10 UNK H   1      32.847  15.361 199.862  0.00  0.00    +0.000 OA
ATOM     11  C11 UNK H   1      36.095  15.068 201.933  0.00  0.00    +0.000 C 
ATOM     12  C12 UNK H   1      37.203  15.918 201.380  0.00  0.00    +0.000 C 
ATOM     13  C13 UNK H   1      36.851  16.462 200.115  0.00  0.00    +0.000 C 
ATOM     14  C14 UNK H   1      38.419  16.050 201.895  0.00  0.00    +0.000 C 
ATOM     15  C15 UNK H   1      39.410  16.816 201.123  0.00  0.00    +0.000 C 
ATOM     16  C16 UNK H   1      37.838  17.143 199.280  0.00  0.00    +0.000 C 
ATOM     17  C17 UNK H   1      39.066  17.321 199.770  0.00  0.00    +0.000 C 
ATOM     18  O22 UNK H   1      40.546  16.989 201.577  0.00  0.00    +0.000 OA
ENDROOT
BRANCH   6  19
ATOM     19  O18 UNK H   1      32.073  17.563 195.637  0.00  0.00    +0.000 OA
ATOM     20  H9  UNK H   1      32.620  17.788 194.768  0.00  0.00    +0.000 HD
ENDBRANCH   6  19
BRANCH   5  21
ATOM     21  O19 UNK H   1      31.141  16.054 197.870  0.00  0.00    +0.000 OA
ATOM     22  H10 UNK H   1      31.039  15.123 197.395  0.00  0.00    +0.000 HD
ENDBRANCH   5  21
BRANCH   7  23
ATOM     23  O20 UNK H   1      34.417  16.794 201.753  0.00  0.00    +0.000 OA
ATOM     24  H11 UNK H   1      33.624  17.206 201.201  0.00  0.00    +0.000 HD
ENDBRANCH   7  23
BRANCH  17  25
ATOM     25  O21 UNK H   1      40.026  17.980 199.011  0.00  0.00    +0.000 OA
ATOM     26  H12 UNK H   1      40.880  17.375 198.923  0.00  0.00    +0.000 HD
ENDBRANCH  17  25
TORSDOF 4
REMARK  Name = TETCA.pdb
REMARK  10 active torsions:
REMARK  status: ('A' for Active; 'I' for Inactive)
REMARK    1  A    between atoms: O1_1  and  C14_14
REMARK    2  A    between atoms: O2_2  and  C16_16
REMARK    3  A    between atoms: O4_4  and  C19_19
REMARK    4  A    between atoms: O5_5  and  C22_22
REMARK    5  A    between atoms: O7_7  and  C29_29
REMARK    6  A    between atoms: N9_9  and  C15_15
REMARK    7  A    between atoms: N9_9  and  C27_27
REMARK    8  A    between atoms: N9_9  and  C28_28
REMARK    9  A    between atoms: C16_16  and  C25_25
REMARK   10  A    between atoms: C23_23  and  C30_30
REMARK                            x       y       z     vdW  Elec       q    Type
REMARK                         _______ _______ _______ _____ _____    ______ ____
ROOT
ATOM      1  O3  UNK T   1      40.212  16.903 193.753  0.00  0.00    +0.000 OA
ATOM      2  O6  UNK T   1      35.723  21.071 196.020  0.00  0.00    +0.000 OA
ATOM      3  C11 UNK T   1      37.140  18.813 193.588  0.00  0.00    +0.000 C 
ATOM      4  C12 UNK T   1      36.778  16.290 193.704  0.00  0.00    +0.000 C 
ATOM      5  C13 UNK T   1      36.179  17.669 194.032  0.00  0.00    +0.000 C 
ATOM      6  C14 UNK T   1      38.578  18.676 194.156  0.00  0.00    +0.000 C 
ATOM      7  C15 UNK T   1      36.519  20.171 193.955  0.00  0.00    +0.000 C 
ATOM      8  C16 UNK T   1      35.853  15.059 193.940  0.00  0.00    +0.000 C 
ATOM      9  C17 UNK T   1      38.067  16.198 194.462  0.00  0.00    +0.000 C 
ATOM     10  C18 UNK T   1      39.071  17.222 194.073  0.00  0.00    +0.000 C 
ATOM     11  C19 UNK T   1      38.712  19.161 195.589  0.00  0.00    +0.000 C 
ATOM     12  C20 UNK T   1      35.971  14.480 195.349  0.00  0.00    +0.000 A 
ATOM     13  C21 UNK T   1      36.597  20.418 195.448  0.00  0.00    +0.000 C 
ATOM     14  C22 UNK T   1      38.288  15.411 195.524  0.00  0.00    +0.000 C 
ATOM     15  C23 UNK T   1      37.785  19.915 196.214  0.00  0.00    +0.000 C 
ATOM     16  C24 UNK T   1      37.169  14.620 196.086  0.00  0.00    +0.000 A 
ATOM     17  C25 UNK T   1      36.213  13.940 192.943  0.00  0.00    +0.000 C 
ATOM     18  C26 UNK T   1      34.905  13.738 195.896  0.00  0.00    +0.000 A 
ATOM     19  C29 UNK T   1      37.242  14.047 197.368  0.00  0.00    +0.000 A 
ATOM     20  C31 UNK T   1      35.005  13.169 197.163  0.00  0.00    +0.000 A 
ATOM     21  C32 UNK T   1      36.171  13.327 197.900  0.00  0.00    +0.000 A 
ENDROOT
BRANCH  15  24
ATOM     22  O8  UNK T   1      39.005  20.627 198.103  0.00  0.00    +0.000 OA
ATOM     23  N10 UNK T   1      36.753  20.180 198.339  0.00  0.00    +0.000 N 
ATOM     24  C30 UNK T   1      37.927  20.278 197.636  0.00  0.00    +0.000 C 
ATOM     25  H54 UNK T   1      36.685  20.388 199.331  0.00  0.00    +0.000 HD
ATOM     26  H55 UNK T   1      35.897  19.883 197.882  0.00  0.00    +0.000 HD
ENDBRANCH  15  24
BRANCH   7  27
ATOM     27  N9  UNK T   1      37.189  21.300 193.313  0.00  0.00    +0.000 NA
ATOM     28  C27 UNK T   1      37.051  21.216 191.860  0.00  0.00    +0.000 C 
ATOM     29  C28 UNK T   1      36.644  22.563 193.808  0.00  0.00    +0.000 C 
ENDBRANCH   7  27
BRANCH   6  30
ATOM     30  O1  UNK T   1      39.489  19.446 193.371  0.00  0.00    +0.000 OA
ATOM     31  H41 UNK T   1      39.264  19.349 192.430  0.00  0.00    +0.000 HD
ENDBRANCH   6  30
BRANCH   8  32
ATOM     32  O2  UNK T   1      34.505  15.439 193.642  0.00  0.00    +0.000 OA
ATOM     33  H42 UNK T   1      33.981  14.628 193.529  0.00  0.00    +0.000 HD
ENDBRANCH   8  32
BRANCH  11  34
ATOM     34  O4  UNK T   1      39.898  18.757 196.183  0.00  0.00    +0.000 OA
ATOM     35  H50 UNK T   1      39.722  18.430 197.080  0.00  0.00    +0.000 HD
ENDBRANCH  11  34
BRANCH  14  36
ATOM     36  O5  UNK T   1      39.506  15.405 196.175  0.00  0.00    +0.000 OA
ATOM     37  H51 UNK T   1      39.559  16.156 196.786  0.00  0.00    +0.000 HD
ENDBRANCH  14  36
BRANCH  19  38
ATOM     38  O7  UNK T   1      38.355  14.129 198.158  0.00  0.00    +0.000 OA
ATOM     39  H56 UNK T   1      38.711  15.033 198.137  0.00  0.00    +0.000 HD
ENDBRANCH  19  38
TORSDOF 7
ENDMDL
MODEL 4
REMARK VINA RESULT:    -3.552      3.303      8.118
REMARK INTER + INTRA:          -5.072
REMARK INTER:                  -4.904
REMARK INTRA:                  -0.169
REMARK UNBOUND:                -0.171
REMARK  Name = HEMCA.pdb
REMARK  4 active torsions:
REMARK  status: ('A' for Active; 'I' for Inactive)
REMARK    1  A    between atoms: C5_5  and  O19_19
REMARK    2  A    between atoms: C6_6  and  O18_18
REMARK    3  A    between atoms: C7_7  and  O20_20
REMARK    4  A    between atoms: C17_17  and  O21_21
REMARK                            x       y       z     vdW  Elec       q    Type
REMARK                         _______ _______ _______ _____ _____    ______ ____
ROOT
ATOM      1  C1  UNK H   1      39.645  11.412 196.196  0.00  0.00    +0.000 A 
ATOM      2  C2  UNK H   1      40.878  11.422 195.692  0.00  0.00    +0.000 A 
ATOM      3  C3  UNK H   1      39.447  11.504 197.656  0.00  0.00    +0.000 A 
ATOM      4  C4  UNK H   1      42.035  11.512 196.584  0.00  0.00    +0.000 A 
ATOM      5  C5  UNK H   1      40.504  11.572 198.463  0.00  0.00    +0.000 A 
ATOM      6  C6  UNK H   1      41.856  11.574 197.903  0.00  0.00    +0.000 A 
ATOM      7  C7  UNK H   1      37.147  11.054 196.056  0.00  0.00    +0.000 C 
ATOM      8  C8  UNK H   1      38.436  11.268 195.378  0.00  0.00    +0.000 C 
ATOM      9  C9  UNK H   1      37.022  11.803 197.383  0.00  0.00    +0.000 C 
ATOM     10  O10 UNK H   1      38.162  11.549 198.197  0.00  0.00    +0.000 OA
ATOM     11  C11 UNK H   1      36.055  11.312 194.969  0.00  0.00    +0.000 C 
ATOM     12  C12 UNK H   1      36.899  11.052 193.754  0.00  0.00    +0.000 C 
ATOM     13  C13 UNK H   1      38.284  11.162 194.057  0.00  0.00    +0.000 C 
ATOM     14  C14 UNK H   1      36.456  10.888 192.514  0.00  0.00    +0.000 C 
ATOM     15  C15 UNK H   1      37.454  10.789 191.437  0.00  0.00    +0.000 C 
ATOM     16  C16 UNK H   1      39.295  11.166 193.002  0.00  0.00    +0.000 C 
ATOM     17  C17 UNK H   1      38.895  10.977 191.742  0.00  0.00    +0.000 C 
ATOM     18  O22 UNK H   1      37.089  10.607 190.271  0.00  0.00    +0.000 OA
ENDROOT
BRANCH   6  19
ATOM     19  O18 UNK H   1      42.957  11.656 198.749  0.00  0.00    +0.000 OA
ATOM     20  H9  UNK H   1      42.634  11.872 199.725  0.00  0.00    +0.000 HD
ENDBRANCH   6  19
BRANCH   5  21
ATOM     21  O19 UNK H   1      40.321  11.667 199.837  0.00  0.00    +0.000 OA
ATOM     22  H10 UNK H   1      39.296  11.740 200.051  0.00  0.00    +0.000 HD
ENDBRANCH   5  21
BRANCH   7  23
ATOM     23  O20 UNK H   1      37.158   9.652 196.331  0.00  0.00    +0.000 OA
ATOM     24  H11 UNK H   1      37.889   9.442 197.055  0.00  0.00    +0.000 HD
ENDBRANCH   7  23
BRANCH  17  25
ATOM     25  O21 UNK H   1      39.830  10.957 190.715  0.00  0.00    +0.000 OA
ATOM     26  H12 UNK H   1      40.045  11.941 190.418  0.00  0.00    +0.000 HD
ENDBRANCH  17  25
TORSDOF 4
REMARK  Name = TETCA.pdb
REMARK  10 active torsions:
REMARK  status: ('A' for Active; 'I' for Inactive)
REMARK    1  A    between atoms: O1_1  and  C14_14
REMARK    2  A    between atoms: O2_2  and  C16_16
REMARK    3  A    between atoms: O4_4  and  C19_19
REMARK    4  A    between atoms: O5_5  and  C22_22
REMARK    5  A    between atoms: O7_7  and  C29_29
REMARK    6  A    between atoms: N9_9  and  C15_15
REMARK    7  A    between atoms: N9_9  and  C27_27
REMARK    8  A    between atoms: N9_9  and  C28_28
REMARK    9  A    between atoms: C16_16  and  C25_25
REMARK   10  A    between atoms: C23_23  and  C30_30
REMARK                            x       y       z     vdW  Elec       q    Type
REMARK                         _______ _______ _______ _____ _____    ______ ____
ROOT
ATOM      1  O3  UNK T   1      43.836  14.528 190.927  0.00  0.00    +0.000 OA
ATOM      2  O6  UNK T   1      44.181   9.097 194.539  0.00  0.00    +0.000 OA
ATOM      3  C11 UNK T   1      45.090  12.468 193.629  0.00  0.00    +0.000 C 
ATOM      4  C12 UNK T   1      43.752  14.495 194.414  0.00  0.00    +0.000 C 
ATOM      5  C13 UNK T   1      44.185  13.057 194.754  0.00  0.00    +0.000 C 
ATOM      6  C14 UNK T   1      44.455  12.544 192.214  0.00  0.00    +0.000 C 
ATOM      7  C15 UNK T   1      45.480  11.026 193.992  0.00  0.00    +0.000 C 
ATOM      8  C16 UNK T   1      42.983  15.267 195.527  0.00  0.00    +0.000 C 
ATOM      9  C17 UNK T   1      42.983  14.411 193.132  0.00  0.00    +0.000 C 
ATOM     10  C18 UNK T   1      43.777  13.905 191.983  0.00  0.00    +0.000 C 
ATOM     11  C19 UNK T   1      43.449  11.440 191.942  0.00  0.00    +0.000 C 
ATOM     12  C20 UNK T   1      41.469  15.076 195.455  0.00  0.00    +0.000 A 
ATOM     13  C21 UNK T   1      44.306  10.084 193.813  0.00  0.00    +0.000 C 
ATOM     14  C22 UNK T   1      41.660  14.588 193.007  0.00  0.00    +0.000 C 
ATOM     15  C23 UNK T   1      43.331  10.330 192.700  0.00  0.00    +0.000 C 
ATOM     16  C24 UNK T   1      40.839  14.791 194.222  0.00  0.00    +0.000 A 
ATOM     17  C25 UNK T   1      43.270  16.776 195.405  0.00  0.00    +0.000 C 
ATOM     18  C26 UNK T   1      40.681  15.254 196.609  0.00  0.00    +0.000 A 
ATOM     19  C29 UNK T   1      39.439  14.651 194.197  0.00  0.00    +0.000 A 
ATOM     20  C31 UNK T   1      39.296  15.123 196.559  0.00  0.00    +0.000 A 
ATOM     21  C32 UNK T   1      38.676  14.817 195.355  0.00  0.00    +0.000 A 
ENDROOT
BRANCH  15  24
ATOM     22  O8  UNK T   1      41.986   8.989 191.301  0.00  0.00    +0.000 OA
ATOM     23  N10 UNK T   1      41.677   8.870 193.586  0.00  0.00    +0.000 N 
ATOM     24  C30 UNK T   1      42.274   9.336 192.442  0.00  0.00    +0.000 C 
ATOM     25  H54 UNK T   1      40.926   8.187 193.578  0.00  0.00    +0.000 HD
ATOM     26  H55 UNK T   1      41.970   9.206 194.498  0.00  0.00    +0.000 HD
ENDBRANCH  15  24
BRANCH   7  27
ATOM     27  N9  UNK T   1      46.562  10.500 193.164  0.00  0.00    +0.000 NA
ATOM     28  C27 UNK T   1      47.785  11.275 193.369  0.00  0.00    +0.000 C 
ATOM     29  C28 UNK T   1      46.794   9.088 193.466  0.00  0.00    +0.000 C 
ENDBRANCH   7  27
BRANCH   6  30
ATOM     30  O1  UNK T   1      45.470  12.434 191.217  0.00  0.00    +0.000 OA
ATOM     31  H41 UNK T   1      46.301  12.151 191.634  0.00  0.00    +0.000 HD
ENDBRANCH   6  30
BRANCH   8  32
ATOM     32  O2  UNK T   1      43.500  14.865 196.800  0.00  0.00    +0.000 OA
ATOM     33  H42 UNK T   1      43.421  13.898 196.867  0.00  0.00    +0.000 HD
ENDBRANCH   8  32
BRANCH  11  34
ATOM     34  O4  UNK T   1      42.672  11.686 190.820  0.00  0.00    +0.000 OA
ATOM     35  H50 UNK T   1      42.488  12.637 190.750  0.00  0.00    +0.000 HD
ENDBRANCH  11  34
BRANCH  14  36
ATOM     36  O5  UNK T   1      41.031  14.474 191.783  0.00  0.00    +0.000 OA
ATOM     37  H51 UNK T   1      40.201  13.981 191.882  0.00  0.00    +0.000 HD
ENDBRANCH  14  36
BRANCH  19  38
ATOM     38  O7  UNK T   1      38.738  14.376 193.057  0.00  0.00    +0.000 OA
ATOM     39  H56 UNK T   1      38.353  15.193 192.700  0.00  0.00    +0.000 HD
ENDBRANCH  19  38
TORSDOF 7
ENDMDL
MODEL 5
REMARK VINA RESULT:    -3.551      3.111      5.919
REMARK INTER + INTRA:          -5.071
REMARK INTER:                  -4.905
REMARK INTRA:                  -0.166
REMARK UNBOUND:                -0.171
REMARK  Name = HEMCA.pdb
REMARK  4 active torsions:
REMARK  status: ('A' for Active; 'I' for Inactive)
REMARK    1  A    between atoms: C5_5  and  O19_19
REMARK    2  A    between atoms: C6_6  and  O18_18
REMARK    3  A    between atoms: C7_7  and  O20_20
REMARK    4  A    between atoms: C17_17  and  O21_21
REMARK                            x       y       z     vdW  Elec       q    Type
REMARK                         _______ _______ _______ _____ _____    ______ ____
ROOT
ATOM      1  C1  UNK H   1      38.157  12.456 194.396  0.00  0.00    +0.000 A 
ATOM      2  C2  UNK H   1      38.919  12.471 195.489  0.00  0.00    +0.000 A 
ATOM      3  C3  UNK H   1      38.484  11.541 193.285  0.00  0.00    +0.000 A 
ATOM      4  C4  UNK H   1      40.087  11.593 195.581  0.00  0.00    +0.000 A 
ATOM      5  C5  UNK H   1      39.554  10.754 193.370  0.00  0.00    +0.000 A 
ATOM      6  C6  UNK H   1      40.393  10.783 194.569  0.00  0.00    +0.000 A 
ATOM      7  C7  UNK H   1      36.368  13.386 192.872  0.00  0.00    +0.000 C 
ATOM      8  C8  UNK H   1      37.004  13.342 194.200  0.00  0.00    +0.000 C 
ATOM      9  C9  UNK H   1      36.359  12.039 192.152  0.00  0.00    +0.000 C 
ATOM     10  O10 UNK H   1      37.665  11.472 192.157  0.00  0.00    +0.000 OA
ATOM     11  C11 UNK H   1      34.998  14.105 193.090  0.00  0.00    +0.000 C 
ATOM     12  C12 UNK H   1      35.346  14.849 194.348  0.00  0.00    +0.000 C 
ATOM     13  C13 UNK H   1      36.465  14.262 194.999  0.00  0.00    +0.000 C 
ATOM     14  C14 UNK H   1      34.642  15.832 194.896  0.00  0.00    +0.000 C 
ATOM     15  C15 UNK H   1      35.073  16.334 196.210  0.00  0.00    +0.000 C 
ATOM     16  C16 UNK H   1      36.861  14.670 196.346  0.00  0.00    +0.000 C 
ATOM     17  C17 UNK H   1      36.196  15.674 196.923  0.00  0.00    +0.000 C 
ATOM     18  O22 UNK H   1      34.466  17.267 196.745  0.00  0.00    +0.000 OA
ENDROOT
BRANCH   6  19
ATOM     19  O18 UNK H   1      41.505   9.952 194.658  0.00  0.00    +0.000 OA
ATOM     20  H9  UNK H   1      41.317   9.058 194.137  0.00  0.00    +0.000 HD
ENDBRANCH   6  19
BRANCH   5  21
ATOM     21  O19 UNK H   1      39.860   9.886 192.329  0.00  0.00    +0.000 OA
ATOM     22  H10 UNK H   1      40.360   9.044 192.709  0.00  0.00    +0.000 HD
ENDBRANCH   5  21
BRANCH   7  23
ATOM     23  O20 UNK H   1      37.212  14.280 192.143  0.00  0.00    +0.000 OA
ATOM     24  H11 UNK H   1      37.702  14.923 192.812  0.00  0.00    +0.000 HD
ENDBRANCH   7  23
BRANCH  17  25
ATOM     25  O21 UNK H   1      36.556  16.100 198.196  0.00  0.00    +0.000 OA
ATOM     26  H12 UNK H   1      35.952  16.912 198.477  0.00  0.00    +0.000 HD
ENDBRANCH  17  25
TORSDOF 4
REMARK  Name = TETCA.pdb
REMARK  10 active torsions:
REMARK  status: ('A' for Active; 'I' for Inactive)
REMARK    1  A    between atoms: O1_1  and  C14_14
REMARK    2  A    between atoms: O2_2  and  C16_16
REMARK    3  A    between atoms: O4_4  and  C19_19
REMARK    4  A    between atoms: O5_5  and  C22_22
REMARK    5  A    between atoms: O7_7  and  C29_29
REMARK    6  A    between atoms: N9_9  and  C15_15
REMARK    7  A    between atoms: N9_9  and  C27_27
REMARK    8  A    between atoms: N9_9  and  C28_28
REMARK    9  A    between atoms: C16_16  and  C25_25
REMARK   10  A    between atoms: C23_23  and  C30_30
REMARK                            x       y       z     vdW  Elec       q    Type
REMARK                         _______ _______ _______ _____ _____    ______ ____
ROOT
ATOM      1  O3  UNK T   1      37.843  12.345 201.807  0.00  0.00    +0.000 OA
ATOM      2  O6  UNK T   1      42.269  14.179 197.367  0.00  0.00    +0.000 OA
ATOM      3  C11 UNK T   1      40.869  11.970 199.853  0.00  0.00    +0.000 C 
ATOM      4  C12 UNK T   1      39.059  10.262 199.288  0.00  0.00    +0.000 C 
ATOM      5  C13 UNK T   1      40.270  11.044 198.750  0.00  0.00    +0.000 C 
ATOM      6  C14 UNK T   1      39.828  12.922 200.501  0.00  0.00    +0.000 C 
ATOM      7  C15 UNK T   1      42.059  12.752 199.272  0.00  0.00    +0.000 C 
ATOM      8  C16 UNK T   1      38.465   9.174 198.345  0.00  0.00    +0.000 C 
ATOM      9  C17 UNK T   1      38.046  11.284 199.701  0.00  0.00    +0.000 C 
ATOM     10  C18 UNK T   1      38.507  12.187 200.788  0.00  0.00    +0.000 C 
ATOM     11  C19 UNK T   1      39.534  14.156 199.667  0.00  0.00    +0.000 C 
ATOM     12  C20 UNK T   1      37.373   9.710 197.421  0.00  0.00    +0.000 A 
ATOM     13  C21 UNK T   1      41.584  13.845 198.335  0.00  0.00    +0.000 C 
ATOM     14  C22 UNK T   1      36.889  11.530 199.071  0.00  0.00    +0.000 C 
ATOM     15  C23 UNK T   1      40.300  14.562 198.634  0.00  0.00    +0.000 C 
ATOM     16  C24 UNK T   1      36.589  10.824 197.805  0.00  0.00    +0.000 A 
ATOM     17  C25 UNK T   1      37.849   8.038 199.186  0.00  0.00    +0.000 C 
ATOM     18  C26 UNK T   1      37.090   9.052 196.208  0.00  0.00    +0.000 A 
ATOM     19  C29 UNK T   1      35.577  11.266 196.935  0.00  0.00    +0.000 A 
ATOM     20  C31 UNK T   1      36.074   9.500 195.369  0.00  0.00    +0.000 A 
ATOM     21  C32 UNK T   1      35.321  10.609 195.729  0.00  0.00    +0.000 A 
ENDROOT
BRANCH  15  24
ATOM     22  O8  UNK T   1      39.464  16.741 198.300  0.00  0.00    +0.000 OA
ATOM     23  N10 UNK T   1      40.113  15.507 196.461  0.00  0.00    +0.000 N 
ATOM     24  C30 UNK T   1      39.914  15.716 197.802  0.00  0.00    +0.000 C 
ATOM     25  H54 UNK T   1      39.890  16.203 195.755  0.00  0.00    +0.000 HD
ATOM     26  H55 UNK T   1      40.491  14.628 196.122  0.00  0.00    +0.000 HD
ENDBRANCH  15  24
BRANCH   7  27
ATOM     27  N9  UNK T   1      42.868  13.407 200.295  0.00  0.00    +0.000 NA
ATOM     28  C27 UNK T   1      43.483  12.413 201.173  0.00  0.00    +0.000 C 
ATOM     29  C28 UNK T   1      43.892  14.246 199.675  0.00  0.00    +0.000 C 
ENDBRANCH   7  27
BRANCH   6  30
ATOM     30  O1  UNK T   1      40.306  13.380 201.766  0.00  0.00    +0.000 OA
ATOM     31  H41 UNK T   1      40.756  12.650 202.223  0.00  0.00    +0.000 HD
ENDBRANCH   6  30
BRANCH   8  32
ATOM     32  O2  UNK T   1      39.535   8.582 197.601  0.00  0.00    +0.000 OA
ATOM     33  H42 UNK T   1      39.596   7.645 197.853  0.00  0.00    +0.000 HD
ENDBRANCH   8  32
BRANCH  11  34
ATOM     34  O4  UNK T   1      38.400  14.832 200.090  0.00  0.00    +0.000 OA
ATOM     35  H50 UNK T   1      38.264  14.686 201.040  0.00  0.00    +0.000 HD
ENDBRANCH  11  34
BRANCH  14  36
ATOM     36  O5  UNK T   1      36.021  12.508 199.514  0.00  0.00    +0.000 OA
ATOM     37  H51 UNK T   1      36.472  13.366 199.539  0.00  0.00    +0.000 HD
ENDBRANCH  14  36
BRANCH  19  38
ATOM     38  O7  UNK T   1      34.768  12.332 197.215  0.00  0.00    +0.000 OA
ATOM     39  H56 UNK T   1      34.708  12.915 196.439  0.00  0.00    +0.000 HD
ENDBRANCH  19  38
TORSDOF 7
ENDMDL
MODEL 6
REMARK VINA RESULT:    -3.548      2.739      7.815
REMARK INTER + INTRA:          -5.068
REMARK INTER:                  -4.899
REMARK INTRA:                  -0.169
REMARK UNBOUND:                -0.171
REMARK  Name = HEMCA.pdb
REMARK  4 active torsions:
REMARK  status: ('A' for Active; 'I' for Inactive)
REMARK    1  A    between atoms: C5_5  and  O19_19
REMARK    2  A    between atoms: C6_6  and  O18_18
REMARK    3  A    between atoms: C7_7  and  O20_20
REMARK    4  A    between atoms: C17_17  and  O21_21
REMARK                            x       y       z     vdW  Elec       q    Type
REMARK                         _______ _______ _______ _____ _____    ______ ____
ROOT
ATOM      1  C1  UNK H   1      38.842  14.358 199.692  0.00  0.00    +0.000 A 
ATOM      2  C2  UNK H   1      39.044  14.533 198.386  0.00  0.00    +0.000 A 
ATOM      3  C3  UNK H   1      38.225  15.435 200.491  0.00  0.00    +0.000 A 
ATOM      4  C4  UNK H   1      38.666  15.795 197.749  0.00  0.00    +0.000 A 
ATOM      5  C5  UNK H   1      37.896  16.585 199.907  0.00  0.00    +0.000 A 
ATOM      6  C6  UNK H   1      38.129  16.774 198.475  0.00  0.00    +0.000 A 
ATOM      7  C7  UNK H   1      39.166  13.151 201.889  0.00  0.00    +0.000 C 
ATOM      8  C8  UNK H   1      39.242  13.148 200.418  0.00  0.00    +0.000 C 
ATOM      9  C9  UNK H   1      37.988  13.953 202.439  0.00  0.00    +0.000 C 
ATOM     10  O10 UNK H   1      37.957  15.248 201.847  0.00  0.00    +0.000 OA
ATOM     11  C11 UNK H   1      39.292  11.654 202.317  0.00  0.00    +0.000 C 
ATOM     12  C12 UNK H   1      39.993  11.141 201.091  0.00  0.00    +0.000 C 
ATOM     13  C13 UNK H   1      39.813  12.021 199.990  0.00  0.00    +0.000 C 
ATOM     14  C14 UNK H   1      40.582   9.958 200.965  0.00  0.00    +0.000 C 
ATOM     15  C15 UNK H   1      41.086   9.583 199.634  0.00  0.00    +0.000 C 
ATOM     16  C16 UNK H   1      40.214  11.639 198.638  0.00  0.00    +0.000 C 
ATOM     17  C17 UNK H   1      40.835  10.469 198.470  0.00  0.00    +0.000 C 
ATOM     18  O22 UNK H   1      41.667   8.504 199.475  0.00  0.00    +0.000 OA
ENDROOT
BRANCH   6  19
ATOM     19  O18 UNK H   1      37.774  17.974 197.867  0.00  0.00    +0.000 OA
ATOM     20  H9  UNK H   1      36.902  18.350 198.317  0.00  0.00    +0.000 HD
ENDBRANCH   6  19
BRANCH   5  21
ATOM     21  O19 UNK H   1      37.308  17.598 200.655  0.00  0.00    +0.000 OA
ATOM     22  H10 UNK H   1      36.960  18.352 200.013  0.00  0.00    +0.000 HD
ENDBRANCH   5  21
BRANCH   7  23
ATOM     23  O20 UNK H   1      40.375  13.811 202.271  0.00  0.00    +0.000 OA
ATOM     24  H11 UNK H   1      41.031  13.842 201.452  0.00  0.00    +0.000 HD
ENDBRANCH   7  23
BRANCH  17  25
ATOM     25  O21 UNK H   1      41.246  10.080 197.200  0.00  0.00    +0.000 OA
ATOM     26  H12 UNK H   1      40.871   9.122 196.989  0.00  0.00    +0.000 HD
ENDBRANCH  17  25
TORSDOF 4
REMARK  Name = TETCA.pdb
REMARK  10 active torsions:
REMARK  status: ('A' for Active; 'I' for Inactive)
REMARK    1  A    between atoms: O1_1  and  C14_14
REMARK    2  A    between atoms: O2_2  and  C16_16
REMARK    3  A    between atoms: O4_4  and  C19_19
REMARK    4  A    between atoms: O5_5  and  C22_22
REMARK    5  A    between atoms: O7_7  and  C29_29
REMARK    6  A    between atoms: N9_9  and  C15_15
REMARK    7  A    between atoms: N9_9  and  C27_27
REMARK    8  A    between atoms: N9_9  and  C28_28
REMARK    9  A    between atoms: C16_16  and  C25_25
REMARK   10  A    between atoms: C23_23  and  C30_30
REMARK                            x       y       z     vdW  Elec       q    Type
REMARK                         _______ _______ _______ _____ _____    ______ ____
ROOT
ATOM      1  O3  UNK T   1      37.936  11.088 193.094  0.00  0.00    +0.000 OA
ATOM      2  O6  UNK T   1      41.706  15.882 195.430  0.00  0.00    +0.000 OA
ATOM      3  C11 UNK T   1      38.912  14.541 193.583  0.00  0.00    +0.000 C 
ATOM      4  C12 UNK T   1      36.708  13.924 194.711  0.00  0.00    +0.000 C 
ATOM      5  C13 UNK T   1      37.935  14.850 194.758  0.00  0.00    +0.000 C 
ATOM      6  C14 UNK T   1      39.336  13.050 193.501  0.00  0.00    +0.000 C 
ATOM      7  C15 UNK T   1      40.135  15.468 193.679  0.00  0.00    +0.000 C 
ATOM      8  C16 UNK T   1      35.568  14.233 195.727  0.00  0.00    +0.000 C 
ATOM      9  C17 UNK T   1      37.230  12.525 194.836  0.00  0.00    +0.000 C 
ATOM     10  C18 UNK T   1      38.135  12.117 193.731  0.00  0.00    +0.000 C 
ATOM     11  C19 UNK T   1      40.440  12.680 194.476  0.00  0.00    +0.000 C 
ATOM     12  C20 UNK T   1      35.737  13.504 197.060  0.00  0.00    +0.000 A 
ATOM     13  C21 UNK T   1      41.050  15.044 194.810  0.00  0.00    +0.000 C 
ATOM     14  C22 UNK T   1      37.078  11.733 195.906  0.00  0.00    +0.000 C 
ATOM     15  C23 UNK T   1      41.199  13.585 195.127  0.00  0.00    +0.000 C 
ATOM     16  C24 UNK T   1      36.431  12.274 197.123  0.00  0.00    +0.000 A 
ATOM     17  C25 UNK T   1      34.211  13.809 195.131  0.00  0.00    +0.000 C 
ATOM     18  C26 UNK T   1      35.136  14.020 198.225  0.00  0.00    +0.000 A 
ATOM     19  C29 UNK T   1      36.538  11.625 198.366  0.00  0.00    +0.000 A 
ATOM     20  C31 UNK T   1      35.243  13.353 199.442  0.00  0.00    +0.000 A 
ATOM     21  C32 UNK T   1      35.948  12.158 199.514  0.00  0.00    +0.000 A 
ENDROOT
BRANCH  15  24
ATOM     22  O8  UNK T   1      42.922  12.200 195.947  0.00  0.00    +0.000 OA
ATOM     23  N10 UNK T   1      42.201  13.965 197.249  0.00  0.00    +0.000 N 
ATOM     24  C30 UNK T   1      42.194  13.169 196.131  0.00  0.00    +0.000 C 
ATOM     25  H54 UNK T   1      42.824  13.806 198.035  0.00  0.00    +0.000 HD
ATOM     26  H55 UNK T   1      41.566  14.752 197.330  0.00  0.00    +0.000 HD
ENDBRANCH  15  24
BRANCH   7  27
ATOM     27  N9  UNK T   1      40.949  15.468 192.466  0.00  0.00    +0.000 NA
ATOM     28  C27 UNK T   1      40.181  15.988 191.336  0.00  0.00    +0.000 C 
ATOM     29  C28 UNK T   1      42.162  16.259 192.668  0.00  0.00    +0.000 C 
ENDBRANCH   7  27
BRANCH   6  30
ATOM     30  O1  UNK T   1      39.822  12.752 192.192  0.00  0.00    +0.000 OA
ATOM     31  H41 UNK T   1      40.502  13.401 191.946  0.00  0.00    +0.000 HD
ENDBRANCH   6  30
BRANCH   8  32
ATOM     32  O2  UNK T   1      35.496  15.650 195.913  0.00  0.00    +0.000 OA
ATOM     33  H42 UNK T   1      36.059  15.885 196.669  0.00  0.00    +0.000 HD
ENDBRANCH   8  32
BRANCH  11  34
ATOM     34  O4  UNK T   1      40.597  11.309 194.615  0.00  0.00    +0.000 OA
ATOM     35  H50 UNK T   1      40.906  10.926 193.778  0.00  0.00    +0.000 HD
ENDBRANCH  11  34
BRANCH  14  36
ATOM     36  O5  UNK T   1      37.611  10.459 195.941  0.00  0.00    +0.000 OA
ATOM     37  H51 UNK T   1      37.779  10.194 196.859  0.00  0.00    +0.000 HD
ENDBRANCH  14  36
BRANCH  19  38
ATOM     38  O7  UNK T   1      37.190  10.434 198.531  0.00  0.00    +0.000 OA
ATOM     39  H56 UNK T   1      37.098  10.131 199.449  0.00  0.00    +0.000 HD
ENDBRANCH  19  38
TORSDOF 7
ENDMDL
MODEL 7
REMARK VINA RESULT:    -3.548      3.995      8.649
REMARK INTER + INTRA:          -5.067
REMARK INTER:                  -4.896
REMARK INTRA:                  -0.171
REMARK UNBOUND:                -0.171
REMARK  Name = HEMCA.pdb
REMARK  4 active torsions:
REMARK  status: ('A' for Active; 'I' for Inactive)
REMARK    1  A    between atoms: C5_5  and  O19_19
REMARK    2  A    between atoms: C6_6  and  O18_18
REMARK    3  A    between atoms: C7_7  and  O20_20
REMARK    4  A    between atoms: C17_17  and  O21_21
REMARK                            x       y       z     vdW  Elec       q    Type
REMARK                         _______ _______ _______ _____ _____    ______ ____
ROOT
ATOM      1  C1  UNK H   1      33.280  19.105 192.680  0.00  0.00    +0.000 A 
ATOM      2  C2  UNK H   1      34.450  18.854 193.268  0.00  0.00    +0.000 A 
ATOM      3  C3  UNK H   1      32.432  20.209 193.172  0.00  0.00    +0.000 A 
ATOM      4  C4  UNK H   1      34.886  19.663 194.407  0.00  0.00    +0.000 A 
ATOM      5  C5  UNK H   1      32.829  20.931 194.217  0.00  0.00    +0.000 A 
ATOM      6  C6  UNK H   1      34.110  20.644 194.864  0.00  0.00    +0.000 A 
ATOM      7  C7  UNK H   1      31.354  18.543 191.143  0.00  0.00    +0.000 C 
ATOM      8  C8  UNK H   1      32.744  18.309 191.570  0.00  0.00    +0.000 C 
ATOM      9  C9  UNK H   1      30.920  20.004 191.244  0.00  0.00    +0.000 C 
ATOM     10  O10 UNK H   1      31.231  20.520 192.535  0.00  0.00    +0.000 OA
ATOM     11  C11 UNK H   1      31.219  17.836 189.756  0.00  0.00    +0.000 C 
ATOM     12  C12 UNK H   1      32.344  16.852 189.909  0.00  0.00    +0.000 C 
ATOM     13  C13 UNK H   1      33.257  17.267 190.916  0.00  0.00    +0.000 C 
ATOM     14  C14 UNK H   1      32.576  15.803 189.129  0.00  0.00    +0.000 C 
ATOM     15  C15 UNK H   1      33.815  15.043 189.356  0.00  0.00    +0.000 C 
ATOM     16  C16 UNK H   1      34.540  16.593 191.102  0.00  0.00    +0.000 C 
ATOM     17  C17 UNK H   1      34.804  15.517 190.357  0.00  0.00    +0.000 C 
ATOM     18  O22 UNK H   1      34.060  14.042 188.674  0.00  0.00    +0.000 OA
ENDROOT
BRANCH   6  19
ATOM     19  O18 UNK H   1      34.525  21.409 195.949  0.00  0.00    +0.000 OA
ATOM     20  H9  UNK H   1      35.379  20.972 196.379  0.00  0.00    +0.000 HD
ENDBRANCH   6  19
BRANCH   5  21
ATOM     21  O19 UNK H   1      32.036  21.976 194.678  0.00  0.00    +0.000 OA
ATOM     22  H10 UNK H   1      31.848  21.848 195.703  0.00  0.00    +0.000 HD
ENDBRANCH   5  21
BRANCH   7  23
ATOM     23  O20 UNK H   1      30.597  17.783 192.088  0.00  0.00    +0.000 OA
ATOM     24  H11 UNK H   1      29.694  17.477 191.648  0.00  0.00    +0.000 HD
ENDBRANCH   7  23
BRANCH  17  25
ATOM     25  O21 UNK H   1      36.007  14.841 190.519  0.00  0.00    +0.000 OA
ATOM     26  H12 UNK H   1      36.051  14.431 191.485  0.00  0.00    +0.000 HD
ENDBRANCH  17  25
TORSDOF 4
REMARK  Name = TETCA.pdb
REMARK  10 active torsions:
REMARK  status: ('A' for Active; 'I' for Inactive)
REMARK    1  A    between atoms: O1_1  and  C14_14
REMARK    2  A    between atoms: O2_2  and  C16_16
REMARK    3  A    between atoms: O4_4  and  C19_19
REMARK    4  A    between atoms: O5_5  and  C22_22
REMARK    5  A    between atoms: O7_7  and  C29_29
REMARK    6  A    between atoms: N9_9  and  C15_15
REMARK    7  A    between atoms: N9_9  and  C27_27
REMARK    8  A    between atoms: N9_9  and  C28_28
REMARK    9  A    between atoms: C16_16  and  C25_25
REMARK   10  A    between atoms: C23_23  and  C30_30
REMARK                            x       y       z     vdW  Elec       q    Type
REMARK                         _______ _______ _______ _____ _____    ______ ____
ROOT
ATOM      1  O3  UNK T   1      40.439  17.785 191.244  0.00  0.00    +0.000 OA
ATOM      2  O6  UNK T   1      36.433  16.715 196.291  0.00  0.00    +0.000 OA
ATOM      3  C11 UNK T   1      39.068  18.442 194.531  0.00  0.00    +0.000 C 
ATOM      4  C12 UNK T   1      38.586  20.280 192.828  0.00  0.00    +0.000 C 
ATOM      5  C13 UNK T   1      38.091  19.581 194.107  0.00  0.00    +0.000 C 
ATOM      6  C14 UNK T   1      39.355  17.414 193.404  0.00  0.00    +0.000 C 
ATOM      7  C15 UNK T   1      38.527  17.752 195.795  0.00  0.00    +0.000 C 
ATOM      8  C16 UNK T   1      37.797  21.547 192.384  0.00  0.00    +0.000 C 
ATOM      9  C17 UNK T   1      38.636  19.227 191.764  0.00  0.00    +0.000 C 
ATOM     10  C18 UNK T   1      39.580  18.118 192.055  0.00  0.00    +0.000 C 
ATOM     11  C19 UNK T   1      38.261  16.374 193.240  0.00  0.00    +0.000 C 
ATOM     12  C20 UNK T   1      36.634  21.233 191.444  0.00  0.00    +0.000 A 
ATOM     13  C21 UNK T   1      37.335  16.876 195.468  0.00  0.00    +0.000 C 
ATOM     14  C22 UNK T   1      37.805  19.143 190.716  0.00  0.00    +0.000 C 
ATOM     15  C23 UNK T   1      37.293  16.154 194.153  0.00  0.00    +0.000 C 
ATOM     16  C24 UNK T   1      36.672  20.090 190.612  0.00  0.00    +0.000 A 
ATOM     17  C25 UNK T   1      38.743  22.517 191.648  0.00  0.00    +0.000 C 
ATOM     18  C26 UNK T   1      35.546  22.122 191.349  0.00  0.00    +0.000 A 
ATOM     19  C29 UNK T   1      35.591  19.855 189.742  0.00  0.00    +0.000 A 
ATOM     20  C31 UNK T   1      34.493  21.876 190.472  0.00  0.00    +0.000 A 
ATOM     21  C32 UNK T   1      34.514  20.741 189.672  0.00  0.00    +0.000 A 
ENDROOT
BRANCH  15  24
ATOM     22  O8  UNK T   1      36.418  14.106 193.377  0.00  0.00    +0.000 OA
ATOM     23  N10 UNK T   1      34.974  15.653 194.297  0.00  0.00    +0.000 N 
ATOM     24  C30 UNK T   1      36.204  15.195 193.898  0.00  0.00    +0.000 C 
ATOM     25  H54 UNK T   1      34.120  15.114 194.183  0.00  0.00    +0.000 HD
ATOM     26  H55 UNK T   1      34.874  16.569 194.722  0.00  0.00    +0.000 HD
ENDBRANCH  15  24
BRANCH   7  27
ATOM     27  N9  UNK T   1      39.511  16.887 196.440  0.00  0.00    +0.000 NA
ATOM     28  C27 UNK T   1      40.651  17.672 196.911  0.00  0.00    +0.000 C 
ATOM     29  C28 UNK T   1      38.898  16.158 197.550  0.00  0.00    +0.000 C 
ENDBRANCH   7  27
BRANCH   6  30
ATOM     30  O1  UNK T   1      40.561  16.705 193.685  0.00  0.00    +0.000 OA
ATOM     31  H41 UNK T   1      41.058  17.177 194.375  0.00  0.00    +0.000 HD
ENDBRANCH   6  30
BRANCH   8  32
ATOM     32  O2  UNK T   1      37.350  22.240 193.555  0.00  0.00    +0.000 OA
ATOM     33  H42 UNK T   1      37.372  23.194 193.368  0.00  0.00    +0.000 HD
ENDBRANCH   8  32
BRANCH  11  34
ATOM     34  O4  UNK T   1      38.370  15.662 192.054  0.00  0.00    +0.000 OA
ATOM     35  H50 UNK T   1      38.200  16.250 191.301  0.00  0.00    +0.000 HD
ENDBRANCH  11  34
BRANCH  14  36
ATOM     36  O5  UNK T   1      37.914  18.124 189.790  0.00  0.00    +0.000 OA
ATOM     37  H51 UNK T   1      38.792  17.716 189.848  0.00  0.00    +0.000 HD
ENDBRANCH  14  36
BRANCH  19  38
ATOM     38  O7  UNK T   1      35.533  18.780 188.900  0.00  0.00    +0.000 OA
ATOM     39  H56 UNK T   1      35.147  18.018 189.363  0.00  0.00    +0.000 HD
ENDBRANCH  19  38
TORSDOF 7
ENDMDL
MODEL 8
REMARK VINA RESULT:    -3.544      2.696      6.709
REMARK INTER + INTRA:          -5.061
REMARK INTER:                  -4.898
REMARK INTRA:                  -0.164
REMARK UNBOUND:                -0.171
REMARK  Name = HEMCA.pdb
REMARK  4 active torsions:
REMARK  status: ('A' for Active; 'I' for Inactive)
REMARK    1  A    between atoms: C5_5  and  O19_19
REMARK    2  A    between atoms: C6_6  and  O18_18
REMARK    3  A    between atoms: C7_7  and  O20_20
REMARK    4  A    between atoms: C17_17  and  O21_21
REMARK                            x       y       z     vdW  Elec       q    Type
REMARK                         _______ _______ _______ _____ _____    ______ ____
ROOT
ATOM      1  C1  UNK H   1      39.082  13.745 197.905  0.00  0.00    +0.000 A 
ATOM      2  C2  UNK H   1      39.003  14.146 196.636  0.00  0.00    +0.000 A 
ATOM      3  C3  UNK H   1      39.592  12.396 198.218  0.00  0.00    +0.000 A 
ATOM      4  C4  UNK H   1      39.409  13.246 195.556  0.00  0.00    +0.000 A 
ATOM      5  C5  UNK H   1      39.947  11.578 197.230  0.00  0.00    +0.000 A 
ATOM      6  C6  UNK H   1      39.849  12.021 195.838  0.00  0.00    +0.000 A 
ATOM      7  C7  UNK H   1      38.578  13.938 200.374  0.00  0.00    +0.000 C 
ATOM      8  C8  UNK H   1      38.643  14.562 199.042  0.00  0.00    +0.000 C 
ATOM      9  C9  UNK H   1      39.678  12.907 200.622  0.00  0.00    +0.000 C 
ATOM     10  O10 UNK H   1      39.733  11.980 199.542  0.00  0.00    +0.000 OA
ATOM     11  C11 UNK H   1      38.448  15.123 201.384  0.00  0.00    +0.000 C 
ATOM     12  C12 UNK H   1      37.882  16.145 200.441  0.00  0.00    +0.000 C 
ATOM     13  C13 UNK H   1      38.145  15.798 199.088  0.00  0.00    +0.000 C 
ATOM     14  C14 UNK H   1      37.337  17.306 200.781  0.00  0.00    +0.000 C 
ATOM     15  C15 UNK H   1      36.973  18.236 199.700  0.00  0.00    +0.000 C 
ATOM     16  C16 UNK H   1      37.885  16.736 197.998  0.00  0.00    +0.000 C 
ATOM     17  C17 UNK H   1      37.313  17.905 198.293  0.00  0.00    +0.000 C 
ATOM     18  O22 UNK H   1      36.436  19.316 199.968  0.00  0.00    +0.000 OA
ENDROOT
BRANCH   6  19
ATOM     19  O18 UNK H   1      40.232  11.167 194.810  0.00  0.00    +0.000 OA
ATOM     20  H9  UNK H   1      41.254  10.943 194.902  0.00  0.00    +0.000 HD
ENDBRANCH   6  19
BRANCH   5  21
ATOM     21  O19 UNK H   1      40.436  10.310 197.522  0.00  0.00    +0.000 OA
ATOM     22  H10 UNK H   1      41.399  10.203 197.117  0.00  0.00    +0.000 HD
ENDBRANCH   5  21
BRANCH   7  23
ATOM     23  O20 UNK H   1      37.321  13.257 200.347  0.00  0.00    +0.000 OA
ATOM     24  H11 UNK H   1      36.858  13.412 199.417  0.00  0.00    +0.000 HD
ENDBRANCH   7  23
BRANCH  17  25
ATOM     25  O21 UNK H   1      37.035  18.816 197.280  0.00  0.00    +0.000 OA
ATOM     26  H12 UNK H   1      36.162  19.349 197.517  0.00  0.00    +0.000 HD
ENDBRANCH  17  25
TORSDOF 4
REMARK  Name = TETCA.pdb
REMARK  10 active torsions:
REMARK  status: ('A' for Active; 'I' for Inactive)
REMARK    1  A    between atoms: O1_1  and  C14_14
REMARK    2  A    between atoms: O2_2  and  C16_16
REMARK    3  A    between atoms: O4_4  and  C19_19
REMARK    4  A    between atoms: O5_5  and  C22_22
REMARK    5  A    between atoms: O7_7  and  C29_29
REMARK    6  A    between atoms: N9_9  and  C15_15
REMARK    7  A    between atoms: N9_9  and  C27_27
REMARK    8  A    between atoms: N9_9  and  C28_28
REMARK    9  A    between atoms: C16_16  and  C25_25
REMARK   10  A    between atoms: C23_23  and  C30_30
REMARK                            x       y       z     vdW  Elec       q    Type
REMARK                         _______ _______ _______ _____ _____    ______ ____
ROOT
ATOM      1  O3  UNK T   1      40.701  19.406 193.394  0.00  0.00    +0.000 OA
ATOM      2  O6  UNK T   1      36.599  14.327 193.195  0.00  0.00    +0.000 OA
ATOM      3  C11 UNK T   1      39.592  16.135 192.305  0.00  0.00    +0.000 C 
ATOM      4  C12 UNK T   1      41.693  16.081 193.753  0.00  0.00    +0.000 C 
ATOM      5  C13 UNK T   1      40.443  15.301 193.311  0.00  0.00    +0.000 C 
ATOM      6  C14 UNK T   1      39.216  17.548 192.827  0.00  0.00    +0.000 C 
ATOM      7  C15 UNK T   1      38.342  15.333 191.907  0.00  0.00    +0.000 C 
ATOM      8  C16 UNK T   1      42.721  15.304 194.627  0.00  0.00    +0.000 C 
ATOM      9  C17 UNK T   1      41.198  17.330 194.415  0.00  0.00    +0.000 C 
ATOM     10  C18 UNK T   1      40.414  18.220 193.520  0.00  0.00    +0.000 C 
ATOM     11  C19 UNK T   1      38.034  17.547 193.780  0.00  0.00    +0.000 C 
ATOM     12  C20 UNK T   1      42.444  15.418 196.125  0.00  0.00    +0.000 A 
ATOM     13  C21 UNK T   1      37.333  15.303 193.038  0.00  0.00    +0.000 C 
ATOM     14  C22 UNK T   1      41.267  17.591 195.728  0.00  0.00    +0.000 C 
ATOM     15  C23 UNK T   1      37.193  16.503 193.929  0.00  0.00    +0.000 C 
ATOM     16  C24 UNK T   1      41.779  16.551 196.648  0.00  0.00    +0.000 A 
ATOM     17  C25 UNK T   1      44.139  15.850 194.370  0.00  0.00    +0.000 C 
ATOM     18  C26 UNK T   1      42.917  14.426 197.006  0.00  0.00    +0.000 A 
ATOM     19  C29 UNK T   1      41.570  16.627 198.037  0.00  0.00    +0.000 A 
ATOM     20  C31 UNK T   1      42.710  14.529 198.379  0.00  0.00    +0.000 A 
ATOM     21  C32 UNK T   1      42.033  15.626 198.894  0.00  0.00    +0.000 A 
ENDROOT
BRANCH  15  24
ATOM     22  O8  UNK T   1      35.433  17.525 195.120  0.00  0.00    +0.000 OA
ATOM     23  N10 UNK T   1      35.984  15.338 195.612  0.00  0.00    +0.000 N 
ATOM     24  C30 UNK T   1      36.117  16.525 194.936  0.00  0.00    +0.000 C 
ATOM     25  H54 UNK T   1      35.293  15.194 196.342  0.00  0.00    +0.000 HD
ATOM     26  H55 UNK T   1      36.589  14.551 195.403  0.00  0.00    +0.000 HD
ENDBRANCH  15  24
BRANCH   7  27
ATOM     27  N9  UNK T   1      37.648  15.892 190.749  0.00  0.00    +0.000 NA
ATOM     28  C27 UNK T   1      38.505  15.839 189.566  0.00  0.00    +0.000 C 
ATOM     29  C28 UNK T   1      36.398  15.172 190.510  0.00  0.00    +0.000 C 
ENDBRANCH   7  27
BRANCH   6  30
ATOM     30  O1  UNK T   1      38.867  18.396 191.733  0.00  0.00    +0.000 OA
ATOM     31  H41 UNK T   1      38.460  17.862 191.030  0.00  0.00    +0.000 HD
ENDBRANCH   6  30
BRANCH   8  32
ATOM     32  O2  UNK T   1      42.738  13.937 194.202  0.00  0.00    +0.000 OA
ATOM     33  H42 UNK T   1      43.458  13.830 193.557  0.00  0.00    +0.000 HD
ENDBRANCH   8  32
BRANCH  11  34
ATOM     34  O4  UNK T   1      37.901  18.741 194.472  0.00  0.00    +0.000 OA
ATOM     35  H50 UNK T   1      37.356  18.604 195.263  0.00  0.00    +0.000 HD
ENDBRANCH  11  34
BRANCH  14  36
ATOM     36  O5  UNK T   1      40.766  18.766 196.256  0.00  0.00    +0.000 OA
ATOM     37  H51 UNK T   1      39.978  18.580 196.789  0.00  0.00    +0.000 HD
ENDBRANCH  14  36
BRANCH  19  38
ATOM     38  O7  UNK T   1      40.937  17.679 198.639  0.00  0.00    +0.000 OA
ATOM     39  H56 UNK T   1      39.980  17.516 198.668  0.00  0.00    +0.000 HD
ENDBRANCH  19  38
TORSDOF 7
ENDMDL
MODEL 9
REMARK VINA RESULT:    -3.543      2.677      6.525
REMARK INTER + INTRA:          -5.060
REMARK INTER:                  -4.905
REMARK INTRA:                  -0.154
REMARK UNBOUND:                -0.171
REMARK  Name = HEMCA.pdb
REMARK  4 active torsions:
REMARK  status: ('A' for Active; 'I' for Inactive)
REMARK    1  A    between atoms: C5_5  and  O19_19
REMARK    2  A    between atoms: C6_6  and  O18_18
REMARK    3  A    between atoms: C7_7  and  O20_20
REMARK    4  A    between atoms: C17_17  and  O21_21
REMARK                            x       y       z     vdW  Elec       q    Type
REMARK                         _______ _______ _______ _____ _____    ______ ____
ROOT
ATOM      1  C1  UNK H   1      39.193  12.530 194.059  0.00  0.00    +0.000 A 
ATOM      2  C2  UNK H   1      38.833  13.573 193.313  0.00  0.00    +0.000 A 
ATOM      3  C3  UNK H   1      39.067  11.162 193.518  0.00  0.00    +0.000 A 
ATOM      4  C4  UNK H   1      38.301  13.363 191.965  0.00  0.00    +0.000 A 
ATOM      5  C5  UNK H   1      38.570  10.977 192.297  0.00  0.00    +0.000 A 
ATOM      6  C6  UNK H   1      38.167  12.127 191.487  0.00  0.00    +0.000 A 
ATOM      7  C7  UNK H   1      39.845  11.422 196.235  0.00  0.00    +0.000 C 
ATOM      8  C8  UNK H   1      39.682  12.649 195.437  0.00  0.00    +0.000 C 
ATOM      9  C9  UNK H   1      40.311  10.218 195.418  0.00  0.00    +0.000 C 
ATOM     10  O10 UNK H   1      39.490  10.062 194.264  0.00  0.00    +0.000 OA
ATOM     11  C11 UNK H   1      40.705  11.841 197.471  0.00  0.00    +0.000 C 
ATOM     12  C12 UNK H   1      40.386  13.308 197.465  0.00  0.00    +0.000 C 
ATOM     13  C13 UNK H   1      39.901  13.724 196.195  0.00  0.00    +0.000 C 
ATOM     14  C14 UNK H   1      40.647  14.169 198.440  0.00  0.00    +0.000 C 
ATOM     15  C15 UNK H   1      40.389  15.595 198.183  0.00  0.00    +0.000 C 
ATOM     16  C16 UNK H   1      39.726  15.139 195.874  0.00  0.00    +0.000 C 
ATOM     17  C17 UNK H   1      39.953  16.038 196.835  0.00  0.00    +0.000 C 
ATOM     18  O22 UNK H   1      40.590  16.430 199.071  0.00  0.00    +0.000 OA
ENDROOT
BRANCH   6  19
ATOM     19  O18 UNK H   1      37.659  11.930 190.207  0.00  0.00    +0.000 OA
ATOM     20  H9  UNK H   1      37.939  12.733 189.591  0.00  0.00    +0.000 HD
ENDBRANCH   6  19
BRANCH   5  21
ATOM     21  O19 UNK H   1      38.458   9.691 191.783  0.00  0.00    +0.000 OA
ATOM     22  H10 UNK H   1      38.095   9.045 192.527  0.00  0.00    +0.000 HD
ENDBRANCH   5  21
BRANCH   7  23
ATOM     23  O20 UNK H   1      38.519  11.164 196.701  0.00  0.00    +0.000 OA
ATOM     24  H11 UNK H   1      38.390  10.130 196.835  0.00  0.00    +0.000 HD
ENDBRANCH   7  23
BRANCH  17  25
ATOM     25  O21 UNK H   1      39.780  17.391 196.571  0.00  0.00    +0.000 OA
ATOM     26  H12 UNK H   1      38.990  17.764 197.154  0.00  0.00    +0.000 HD
ENDBRANCH  17  25
TORSDOF 4
REMARK  Name = TETCA.pdb
REMARK  10 active torsions:
REMARK  status: ('A' for Active; 'I' for Inactive)
REMARK    1  A    between atoms: O1_1  and  C14_14
REMARK    2  A    between atoms: O2_2  and  C16_16
REMARK    3  A    between atoms: O4_4  and  C19_19
REMARK    4  A    between atoms: O5_5  and  C22_22
REMARK    5  A    between atoms: O7_7  and  C29_29
REMARK    6  A    between atoms: N9_9  and  C15_15
REMARK    7  A    between atoms: N9_9  and  C27_27
REMARK    8  A    between atoms: N9_9  and  C28_28
REMARK    9  A    between atoms: C16_16  and  C25_25
REMARK   10  A    between atoms: C23_23  and  C30_30
REMARK                            x       y       z     vdW  Elec       q    Type
REMARK                         _______ _______ _______ _____ _____    ______ ____
ROOT
ATOM      1  O3  UNK T   1      41.445  19.229 191.804  0.00  0.00    +0.000 OA
ATOM      2  O6  UNK T   1      35.698  16.153 192.232  0.00  0.00    +0.000 OA
ATOM      3  C11 UNK T   1      38.579  17.450 190.487  0.00  0.00    +0.000 C 
ATOM      4  C12 UNK T   1      40.766  16.146 190.320  0.00  0.00    +0.000 C 
ATOM      5  C13 UNK T   1      39.236  16.036 190.441  0.00  0.00    +0.000 C 
ATOM      6  C14 UNK T   1      39.164  18.375 191.588  0.00  0.00    +0.000 C 
ATOM      7  C15 UNK T   1      37.055  17.298 190.633  0.00  0.00    +0.000 C 
ATOM      8  C16 UNK T   1      41.540  14.813 190.095  0.00  0.00    +0.000 C 
ATOM      9  C17 UNK T   1      41.233  16.887 191.535  0.00  0.00    +0.000 C 
ATOM     10  C18 UNK T   1      40.698  18.269 191.643  0.00  0.00    +0.000 C 
ATOM     11  C19 UNK T   1      38.602  18.101 192.971  0.00  0.00    +0.000 C 
ATOM     12  C20 UNK T   1      41.957  14.132 191.398  0.00  0.00    +0.000 A 
ATOM     13  C21 UNK T   1      36.685  16.864 192.037  0.00  0.00    +0.000 C 
ATOM     14  C22 UNK T   1      41.921  16.353 192.554  0.00  0.00    +0.000 C 
ATOM     15  C23 UNK T   1      37.495  17.362 193.198  0.00  0.00    +0.000 C 
ATOM     16  C24 UNK T   1      42.180  14.895 192.568  0.00  0.00    +0.000 A 
ATOM     17  C25 UNK T   1      42.819  15.086 189.280  0.00  0.00    +0.000 C 
ATOM     18  C26 UNK T   1      42.192  12.744 191.422  0.00  0.00    +0.000 A 
ATOM     19  C29 UNK T   1      42.590  14.230 193.737  0.00  0.00    +0.000 A 
ATOM     20  C31 UNK T   1      42.610  12.108 192.588  0.00  0.00    +0.000 A 
ATOM     21  C32 UNK T   1      42.804  12.850 193.746  0.00  0.00    +0.000 A 
ENDROOT
BRANCH  15  24
ATOM     22  O8  UNK T   1      37.069  17.901 195.454  0.00  0.00    +0.000 OA
ATOM     23  N10 UNK T   1      36.628  15.757 194.721  0.00  0.00    +0.000 N 
ATOM     24  C30 UNK T   1      37.049  17.054 194.568  0.00  0.00    +0.000 C 
ATOM     25  H54 UNK T   1      36.296  15.385 195.606  0.00  0.00    +0.000 HD
ATOM     26  H55 UNK T   1      36.640  15.111 193.938  0.00  0.00    +0.000 HD
ENDBRANCH  15  24
BRANCH   7  27
ATOM     27  N9  UNK T   1      36.330  18.541 190.380  0.00  0.00    +0.000 NA
ATOM     28  C27 UNK T   1      36.522  18.970 188.995  0.00  0.00    +0.000 C 
ATOM     29  C28 UNK T   1      34.908  18.367 190.670  0.00  0.00    +0.000 C 
ENDBRANCH   7  27
BRANCH   6  30
ATOM     30  O1  UNK T   1      38.873  19.739 191.285  0.00  0.00    +0.000 OA
ATOM     31  H41 UNK T   1      38.326  19.780 190.483  0.00  0.00    +0.000 HD
ENDBRANCH   6  30
BRANCH   8  32
ATOM     32  O2  UNK T   1      40.732  13.949 189.289  0.00  0.00    +0.000 OA
ATOM     33  H42 UNK T   1      41.161  13.077 189.258  0.00  0.00    +0.000 HD
ENDBRANCH   8  32
BRANCH  11  34
ATOM     34  O4  UNK T   1      39.339  18.704 193.980  0.00  0.00    +0.000 OA
ATOM     35  H50 UNK T   1      40.110  18.156 194.196  0.00  0.00    +0.000 HD
ENDBRANCH  11  34
BRANCH  14  36
ATOM     36  O5  UNK T   1      42.295  17.110 193.646  0.00  0.00    +0.000 OA
ATOM     37  H51 UNK T   1      42.161  16.604 194.463  0.00  0.00    +0.000 HD
ENDBRANCH  14  36
BRANCH  19  38
ATOM     38  O7  UNK T   1      42.829  14.877 194.917  0.00  0.00    +0.000 OA
ATOM     39  H56 UNK T   1      43.197  14.255 195.567  0.00  0.00    +0.000 HD
ENDBRANCH  19  38
TORSDOF 7
ENDMDL
