MODEL 1
REMARK VINA RESULT:    -3.757      0.000      0.000
REMARK INTER + INTRA:          -4.635
REMARK INTER:                  -4.635
REMARK INTRA:                   0.000
REMARK UNBOUND:                 0.000
REMARK  Name = HEMCA.pdb
REMARK  4 active torsions:
REMARK  status: ('A' for Active; 'I' for Inactive)
REMARK    1  A    between atoms: C5_5  and  O19_19
REMARK    2  A    between atoms: C6_6  and  O18_18
REMARK    3  A    between atoms: C7_7  and  O20_20
REMARK    4  A    between atoms: C17_17  and  O21_21
REMARK                            x       y       z     vdW  Elec       q    Type
REMARK                         _______ _______ _______ _____ _____    ______ ____
ROOT
ATOM      1  C1  UNK H   1      40.637  16.256 193.179  0.00  0.00    +0.000 A 
ATOM      2  C2  UNK H   1      41.105  16.429 194.415  0.00  0.00    +0.000 A 
ATOM      3  C3  UNK H   1      41.578  16.107 192.051  0.00  0.00    +0.000 A 
ATOM      4  C4  UNK H   1      42.549  16.483 194.651  0.00  0.00    +0.000 A 
ATOM      5  C5  UNK H   1      42.889  16.170 192.271  0.00  0.00    +0.000 A 
ATOM      6  C6  UNK H   1      43.397  16.370 193.630  0.00  0.00    +0.000 A 
ATOM      7  C7  UNK H   1      38.813  16.263 191.429  0.00  0.00    +0.000 C 
ATOM      8  C8  UNK H   1      39.208  16.246 192.848  0.00  0.00    +0.000 C 
ATOM      9  C9  UNK H   1      39.759  15.477 190.522  0.00  0.00    +0.000 C 
ATOM     10  O10 UNK H   1      41.106  15.871 190.759  0.00  0.00    +0.000 OA
ATOM     11  C11 UNK H   1      37.299  15.878 191.413  0.00  0.00    +0.000 C 
ATOM     12  C12 UNK H   1      36.963  16.279 192.821  0.00  0.00    +0.000 C 
ATOM     13  C13 UNK H   1      38.131  16.357 193.626  0.00  0.00    +0.000 C 
ATOM     14  C14 UNK H   1      35.742  16.405 193.328  0.00  0.00    +0.000 C 
ATOM     15  C15 UNK H   1      35.624  16.664 194.771  0.00  0.00    +0.000 C 
ATOM     16  C16 UNK H   1      38.046  16.517 195.076  0.00  0.00    +0.000 C 
ATOM     17  C17 UNK H   1      36.839  16.674 195.625  0.00  0.00    +0.000 C 
ATOM     18  O22 UNK H   1      34.509  16.818 195.282  0.00  0.00    +0.000 OA
ENDROOT
BRANCH   6  19
ATOM     19  O18 UNK H   1      44.768  16.425 193.856  0.00  0.00    +0.000 OA
ATOM     20  H9  UNK H   1      45.193  15.483 193.666  0.00  0.00    +0.000 HD
ENDBRANCH   6  19
BRANCH   5  21
ATOM     21  O19 UNK H   1      43.777  16.022 191.212  0.00  0.00    +0.000 OA
ATOM     22  H10 UNK H   1      43.740  15.034 190.859  0.00  0.00    +0.000 HD
ENDBRANCH   5  21
BRANCH   7  23
ATOM     23  O20 UNK H   1      38.909  17.647 191.087  0.00  0.00    +0.000 OA
ATOM     24  H11 UNK H   1      38.041  18.147 191.404  0.00  0.00    +0.000 HD
ENDBRANCH   7  23
BRANCH  17  25
ATOM     25  O21 UNK H   1      36.720  16.845 196.999  0.00  0.00    +0.000 OA
ATOM     26  H12 UNK H   1      36.347  17.806 197.201  0.00  0.00    +0.000 HD
ENDBRANCH  17  25
TORSDOF 4
REMARK  Name = Brazilin.pdb
REMARK  4 active torsions:
REMARK  status: ('A' for Active; 'I' for Inactive)
REMARK    1  A    between atoms: C3_3  and  O3_6
REMARK    2  A    between atoms: C4_4  and  O4_7
REMARK    3  A    between atoms: C10_10  and  O1_16
REMARK    4  A    between atoms: C19_19  and  O1_21
REMARK                            x       y       z     vdW  Elec       q    Type
REMARK                         _______ _______ _______ _____ _____    ______ ____
ROOT
ATOM      1 3C45 GLC     4      41.144  12.621 193.755  0.00  0.00    +0.000 A 
ATOM      2  C2  GLC     4      42.359  12.614 194.577  0.00  0.00    +0.000 A 
ATOM      3  C3  GLC     4      42.231  12.924 195.871  0.00  0.00    +0.000 A 
ATOM      4  C4  GLC     4      40.911  13.239 196.435  0.00  0.00    +0.000 A 
ATOM      5  C5  GLC     4      39.807  13.226 195.676  0.00  0.00    +0.000 A 
ATOM      6 3C45 GLC     4      39.954  12.911 194.269  0.00  0.00    +0.000 A 
ATOM      7  C9  GLC     4      38.912  12.904 193.153  0.00  0.00    +0.000 C 
ATOM      8  C10 GLC     4      39.554  11.892 192.258  0.00  0.00    +0.000 C 
ATOM      9  C11 GLC     4      41.021  12.393 192.265  0.00  0.00    +0.000 C 
ATOM     10  C12 GLC     4      38.838  11.780 190.916  0.00  0.00    +0.000 C 
ATOM     11  O13 GLC     4      37.489  11.394 191.199  0.00  0.00    +0.000 OA
ATOM     12  C14 GLC     4      36.807  11.786 192.307  0.00  0.00    +0.000 A 
ATOM     13  C15 GLC     4      37.467  12.568 193.369  0.00  0.00    +0.000 A 
ATOM     14  C17 GLC     4      36.764  12.951 194.431  0.00  0.00    +0.000 A 
ATOM     15  C18 GLC     4      35.359  12.575 194.532  0.00  0.00    +0.000 A 
ATOM     16  C19 GLC     4      34.780  11.863 193.567  0.00  0.00    +0.000 A 
ATOM     17  C20 GLC     4      35.528  11.455 192.412  0.00  0.00    +0.000 A 
ENDROOT
BRANCH   3  18
ATOM     18  O3  GLC     4      43.318  12.973 196.730  0.00  0.00    +0.000 OA
ATOM     19  H3  GLC     4      43.046  13.029 197.693  0.00  0.00    +0.000 HD
ENDBRANCH   3  18
BRANCH   4  20
ATOM     20  O4  GLC     4      40.848  13.563 197.769  0.00  0.00    +0.000 OA
ATOM     21  H4  GLC     4      41.496  14.325 197.966  0.00  0.00    +0.000 HD
ENDBRANCH   4  20
BRANCH   8  22
ATOM     22  O1  GLC     4      39.477  10.595 192.877  0.00  0.00    +0.000 OA
ATOM     23  H10 GLC     4      40.235  10.032 192.613  0.00  0.00    +0.000 HD
ENDBRANCH   8  22
BRANCH  16  24
ATOM     24  O1  GLC     4      33.474  11.518 193.665  0.00  0.00    +0.000 OA
ATOM     25  H14 GLC     4      33.085  11.620 192.803  0.00  0.00    +0.000 HD
ENDBRANCH  16  24
TORSDOF 4
ENDMDL
MODEL 2
REMARK VINA RESULT:    -3.755      3.376      8.086
REMARK INTER + INTRA:          -4.633
REMARK INTER:                  -4.633
REMARK INTRA:                   0.000
REMARK UNBOUND:                 0.000
REMARK  Name = HEMCA.pdb
REMARK  4 active torsions:
REMARK  status: ('A' for Active; 'I' for Inactive)
REMARK    1  A    between atoms: C5_5  and  O19_19
REMARK    2  A    between atoms: C6_6  and  O18_18
REMARK    3  A    between atoms: C7_7  and  O20_20
REMARK    4  A    between atoms: C17_17  and  O21_21
REMARK                            x       y       z     vdW  Elec       q    Type
REMARK                         _______ _______ _______ _____ _____    ______ ____
ROOT
ATOM      1  C1  UNK H   1      35.405  15.340 198.694  0.00  0.00    +0.000 A 
ATOM      2  C2  UNK H   1      35.161  16.531 199.238  0.00  0.00    +0.000 A 
ATOM      3  C3  UNK H   1      34.313  14.597 198.033  0.00  0.00    +0.000 A 
ATOM      4  C4  UNK H   1      33.812  17.096 199.193  0.00  0.00    +0.000 A 
ATOM      5  C5  UNK H   1      33.086  15.111 198.007  0.00  0.00    +0.000 A 
ATOM      6  C6  UNK H   1      32.823  16.416 198.615  0.00  0.00    +0.000 A 
ATOM      7  C7  UNK H   1      36.811  13.277 198.300  0.00  0.00    +0.000 C 
ATOM      8  C8  UNK H   1      36.713  14.678 198.744  0.00  0.00    +0.000 C 
ATOM      9  C9  UNK H   1      35.889  12.940 197.129  0.00  0.00    +0.000 C 
ATOM     10  O10 UNK H   1      34.562  13.374 197.410  0.00  0.00    +0.000 OA
ATOM     11  C11 UNK H   1      38.339  13.001 198.128  0.00  0.00    +0.000 C 
ATOM     12  C12 UNK H   1      38.854  14.072 199.046  0.00  0.00    +0.000 C 
ATOM     13  C13 UNK H   1      37.875  15.079 199.261  0.00  0.00    +0.000 C 
ATOM     14  C14 UNK H   1      40.097  14.184 199.497  0.00  0.00    +0.000 C 
ATOM     15  C15 UNK H   1      40.439  15.389 200.270  0.00  0.00    +0.000 C 
ATOM     16  C16 UNK H   1      38.207  16.330 199.940  0.00  0.00    +0.000 C 
ATOM     17  C17 UNK H   1      39.439  16.474 200.433  0.00  0.00    +0.000 C 
ATOM     18  O22 UNK H   1      41.576  15.523 200.735  0.00  0.00    +0.000 OA
ENDROOT
BRANCH   6  19
ATOM     19  O18 UNK H   1      31.541  16.954 198.576  0.00  0.00    +0.000 OA
ATOM     20  H9  UNK H   1      31.455  17.595 197.748  0.00  0.00    +0.000 HD
ENDBRANCH   6  19
BRANCH   5  21
ATOM     21  O19 UNK H   1      32.058  14.418 197.378  0.00  0.00    +0.000 OA
ATOM     22  H10 UNK H   1      32.239  14.383 196.344  0.00  0.00    +0.000 HD
ENDBRANCH   5  21
BRANCH   7  23
ATOM     23  O20 UNK H   1      36.369  12.546 199.446  0.00  0.00    +0.000 OA
ATOM     24  H11 UNK H   1      36.647  13.059 200.318  0.00  0.00    +0.000 HD
ENDBRANCH   7  23
BRANCH  17  25
ATOM     25  O21 UNK H   1      39.785  17.643 201.100  0.00  0.00    +0.000 OA
ATOM     26  H12 UNK H   1      40.534  17.434 201.807  0.00  0.00    +0.000 HD
ENDBRANCH  17  25
TORSDOF 4
REMARK  Name = Brazilin.pdb
REMARK  4 active torsions:
REMARK  status: ('A' for Active; 'I' for Inactive)
REMARK    1  A    between atoms: C3_3  and  O3_6
REMARK    2  A    between atoms: C4_4  and  O4_7
REMARK    3  A    between atoms: C10_10  and  O1_16
REMARK    4  A    between atoms: C19_19  and  O1_21
REMARK                            x       y       z     vdW  Elec       q    Type
REMARK                         _______ _______ _______ _____ _____    ______ ____
ROOT
ATOM      1 3C45 GLC     4      35.780  17.158 195.475  0.00  0.00    +0.000 A 
ATOM      2  C2  GLC     4      34.778  18.220 195.610  0.00  0.00    +0.000 A 
ATOM      3  C3  GLC     4      35.090  19.269 196.377  0.00  0.00    +0.000 A 
ATOM      4  C4  GLC     4      36.401  19.347 197.037  0.00  0.00    +0.000 A 
ATOM      5  C5  GLC     4      37.313  18.377 196.891  0.00  0.00    +0.000 A 
ATOM      6 3C45 GLC     4      36.963  17.231 196.076  0.00  0.00    +0.000 A 
ATOM      7  C9  GLC     4      37.744  15.950 195.800  0.00  0.00    +0.000 C 
ATOM      8  C10 GLC     4      37.162  15.620 194.462  0.00  0.00    +0.000 C 
ATOM      9  C11 GLC     4      35.654  15.840 194.744  0.00  0.00    +0.000 C 
ATOM     10  C12 GLC     4      37.610  14.249 193.966  0.00  0.00    +0.000 C 
ATOM     11  O13 GLC     4      39.037  14.287 193.880  0.00  0.00    +0.000 OA
ATOM     12  C14 GLC     4      39.828  14.998 194.726  0.00  0.00    +0.000 A 
ATOM     13  C15 GLC     4      39.242  15.886 195.748  0.00  0.00    +0.000 A 
ATOM     14  C17 GLC     4      40.045  16.553 196.571  0.00  0.00    +0.000 A 
ATOM     15  C18 GLC     4      41.489  16.408 196.436  0.00  0.00    +0.000 A 
ATOM     16  C19 GLC     4      42.002  15.607 195.504  0.00  0.00    +0.000 A 
ATOM     17  C20 GLC     4      41.143  14.874 194.618  0.00  0.00    +0.000 A 
ENDROOT
BRANCH   3  18
ATOM     18  O3  GLC     4      34.205  20.314 196.595  0.00  0.00    +0.000 OA
ATOM     19  H3  GLC     4      34.386  20.799 197.453  0.00  0.00    +0.000 HD
ENDBRANCH   3  18
BRANCH   4  20
ATOM     20  O4  GLC     4      36.655  20.444 197.823  0.00  0.00    +0.000 OA
ATOM     21  H4  GLC     4      35.806  21.001 197.919  0.00  0.00    +0.000 HD
ENDBRANCH   4  20
BRANCH   8  22
ATOM     22  O1  GLC     4      37.624  16.580 193.494  0.00  0.00    +0.000 OA
ATOM     23  H10 GLC     4      38.128  17.303 193.926  0.00  0.00    +0.000 HD
ENDBRANCH   8  22
BRANCH  16  24
ATOM     24  O1  GLC     4      43.344  15.474 195.384  0.00  0.00    +0.000 OA
ATOM     25  H14 GLC     4      43.509  14.869 194.669  0.00  0.00    +0.000 HD
ENDBRANCH  16  24
TORSDOF 4
ENDMDL
MODEL 3
REMARK VINA RESULT:    -3.754      2.943      6.438
REMARK INTER + INTRA:          -4.632
REMARK INTER:                  -4.632
REMARK INTRA:                   0.000
REMARK UNBOUND:                 0.000
REMARK  Name = HEMCA.pdb
REMARK  4 active torsions:
REMARK  status: ('A' for Active; 'I' for Inactive)
REMARK    1  A    between atoms: C5_5  and  O19_19
REMARK    2  A    between atoms: C6_6  and  O18_18
REMARK    3  A    between atoms: C7_7  and  O20_20
REMARK    4  A    between atoms: C17_17  and  O21_21
REMARK                            x       y       z     vdW  Elec       q    Type
REMARK                         _______ _______ _______ _____ _____    ______ ____
ROOT
ATOM      1  C1  UNK H   1      41.873  14.834 198.905  0.00  0.00    +0.000 A 
ATOM      2  C2  UNK H   1      43.105  14.753 198.402  0.00  0.00    +0.000 A 
ATOM      3  C3  UNK H   1      41.456  16.049 199.632  0.00  0.00    +0.000 A 
ATOM      4  C4  UNK H   1      44.046  15.859 198.582  0.00  0.00    +0.000 A 
ATOM      5  C5  UNK H   1      42.321  17.047 199.803  0.00  0.00    +0.000 A 
ATOM      6  C6  UNK H   1      43.675  16.946 199.257  0.00  0.00    +0.000 A 
ATOM      7  C7  UNK H   1      39.641  13.868 199.592  0.00  0.00    +0.000 C 
ATOM      8  C8  UNK H   1      40.889  13.750 198.818  0.00  0.00    +0.000 C 
ATOM      9  C9  UNK H   1      39.116  15.300 199.691  0.00  0.00    +0.000 C 
ATOM     10  O10 UNK H   1      40.154  16.175 200.118  0.00  0.00    +0.000 OA
ATOM     11  C11 UNK H   1      38.685  12.779 199.009  0.00  0.00    +0.000 C 
ATOM     12  C12 UNK H   1      39.728  11.867 198.429  0.00  0.00    +0.000 C 
ATOM     13  C13 UNK H   1      40.960  12.551 198.240  0.00  0.00    +0.000 C 
ATOM     14  C14 UNK H   1      39.531  10.628 197.996  0.00  0.00    +0.000 C 
ATOM     15  C15 UNK H   1      40.652   9.951 197.326  0.00  0.00    +0.000 C 
ATOM     16  C16 UNK H   1      42.060  11.943 197.495  0.00  0.00    +0.000 C 
ATOM     17  C17 UNK H   1      41.914  10.688 197.063  0.00  0.00    +0.000 C 
ATOM     18  O22 UNK H   1      40.524   8.786 196.932  0.00  0.00    +0.000 OA
ENDROOT
BRANCH   6  19
ATOM     19  O18 UNK H   1      44.572  17.995 199.429  0.00  0.00    +0.000 OA
ATOM     20  H9  UNK H   1      44.178  18.868 198.998  0.00  0.00    +0.000 HD
ENDBRANCH   6  19
BRANCH   5  21
ATOM     21  O19 UNK H   1      41.929  18.195 200.481  0.00  0.00    +0.000 OA
ATOM     22  H10 UNK H   1      42.462  18.270 201.382  0.00  0.00    +0.000 HD
ENDBRANCH   5  21
BRANCH   7  23
ATOM     23  O20 UNK H   1      40.033  13.442 200.898  0.00  0.00    +0.000 OA
ATOM     24  H11 UNK H   1      39.791  14.187 201.597  0.00  0.00    +0.000 HD
ENDBRANCH   7  23
BRANCH  17  25
ATOM     25  O21 UNK H   1      42.946  10.071 196.366  0.00  0.00    +0.000 OA
ATOM     26  H12 UNK H   1      43.793  10.001 196.983  0.00  0.00    +0.000 HD
ENDBRANCH  17  25
TORSDOF 4
REMARK  Name = Brazilin.pdb
REMARK  4 active torsions:
REMARK  status: ('A' for Active; 'I' for Inactive)
REMARK    1  A    between atoms: C3_3  and  O3_6
REMARK    2  A    between atoms: C4_4  and  O4_7
REMARK    3  A    between atoms: C10_10  and  O1_16
REMARK    4  A    between atoms: C19_19  and  O1_21
REMARK                            x       y       z     vdW  Elec       q    Type
REMARK                         _______ _______ _______ _____ _____    ______ ____
ROOT
ATOM      1 3C45 GLC     4      40.999  16.689 195.805  0.00  0.00    +0.000 A 
ATOM      2  C2  GLC     4      42.231  17.443 195.548  0.00  0.00    +0.000 A 
ATOM      3  C3  GLC     4      43.257  16.780 195.005  0.00  0.00    +0.000 A 
ATOM      4  C4  GLC     4      43.131  15.356 194.670  0.00  0.00    +0.000 A 
ATOM      5  C5  GLC     4      41.995  14.684 194.895  0.00  0.00    +0.000 A 
ATOM      6 3C45 GLC     4      40.891  15.400 195.503  0.00  0.00    +0.000 A 
ATOM      7  C9  GLC     4      39.525  14.893 195.956  0.00  0.00    +0.000 C 
ATOM      8  C10 GLC     4      38.756  16.168 195.809  0.00  0.00    +0.000 C 
ATOM      9  C11 GLC     4      39.732  17.169 196.479  0.00  0.00    +0.000 C 
ATOM     10  C12 GLC     4      37.344  16.052 196.373  0.00  0.00    +0.000 C 
ATOM     11  O13 GLC     4      36.694  15.005 195.647  0.00  0.00    +0.000 OA
ATOM     12  C14 GLC     4      37.332  13.903 195.173  0.00  0.00    +0.000 A 
ATOM     13  C15 GLC     4      38.796  13.765 195.288  0.00  0.00    +0.000 A 
ATOM     14  C17 GLC     4      39.386  12.664 194.830  0.00  0.00    +0.000 A 
ATOM     15  C18 GLC     4      38.576  11.625 194.207  0.00  0.00    +0.000 A 
ATOM     16  C19 GLC     4      37.256  11.769 194.105  0.00  0.00    +0.000 A 
ATOM     17  C20 GLC     4      36.609  12.948 194.606  0.00  0.00    +0.000 A 
ENDROOT
BRANCH   3  18
ATOM     18  O3  GLC     4      44.475  17.390 194.747  0.00  0.00    +0.000 OA
ATOM     19  H3  GLC     4      45.096  17.360 195.533  0.00  0.00    +0.000 HD
ENDBRANCH   3  18
BRANCH   4  20
ATOM     20  O4  GLC     4      44.227  14.729 194.127  0.00  0.00    +0.000 OA
ATOM     21  H4  GLC     4      43.921  14.048 193.432  0.00  0.00    +0.000 HD
ENDBRANCH   4  20
BRANCH   8  22
ATOM     22  O1  GLC     4      38.618  16.481 194.411  0.00  0.00    +0.000 OA
ATOM     23  H10 GLC     4      39.450  16.851 194.048  0.00  0.00    +0.000 HD
ENDBRANCH   8  22
BRANCH  16  24
ATOM     24  O1  GLC     4      36.507  10.800 193.527  0.00  0.00    +0.000 OA
ATOM     25  H14 GLC     4      37.045  10.375 192.868  0.00  0.00    +0.000 HD
ENDBRANCH  16  24
TORSDOF 4
ENDMDL
MODEL 4
REMARK VINA RESULT:    -3.754      3.640      6.680
REMARK INTER + INTRA:          -4.632
REMARK INTER:                  -4.632
REMARK INTRA:                   0.000
REMARK UNBOUND:                 0.000
REMARK  Name = HEMCA.pdb
REMARK  4 active torsions:
REMARK  status: ('A' for Active; 'I' for Inactive)
REMARK    1  A    between atoms: C5_5  and  O19_19
REMARK    2  A    between atoms: C6_6  and  O18_18
REMARK    3  A    between atoms: C7_7  and  O20_20
REMARK    4  A    between atoms: C17_17  and  O21_21
REMARK                            x       y       z     vdW  Elec       q    Type
REMARK                         _______ _______ _______ _____ _____    ______ ____
ROOT
ATOM      1  C1  UNK H   1      37.006  17.750 194.977  0.00  0.00    +0.000 A 
ATOM      2  C2  UNK H   1      36.364  16.739 195.561  0.00  0.00    +0.000 A 
ATOM      3  C3  UNK H   1      38.443  17.623 194.660  0.00  0.00    +0.000 A 
ATOM      4  C4  UNK H   1      37.084  15.511 195.900  0.00  0.00    +0.000 A 
ATOM      5  C5  UNK H   1      39.094  16.508 194.983  0.00  0.00    +0.000 A 
ATOM      6  C6  UNK H   1      38.385  15.405 195.633  0.00  0.00    +0.000 A 
ATOM      7  C7  UNK H   1      37.228  20.148 194.211  0.00  0.00    +0.000 C 
ATOM      8  C8  UNK H   1      36.374  19.034 194.656  0.00  0.00    +0.000 C 
ATOM      9  C9  UNK H   1      38.414  19.706 193.354  0.00  0.00    +0.000 C 
ATOM     10  O10 UNK H   1      39.118  18.650 194.000  0.00  0.00    +0.000 OA
ATOM     11  C11 UNK H   1      36.250  21.209 193.610  0.00  0.00    +0.000 C 
ATOM     12  C12 UNK H   1      35.006  20.786 194.337  0.00  0.00    +0.000 C 
ATOM     13  C13 UNK H   1      35.118  19.453 194.816  0.00  0.00    +0.000 C 
ATOM     14  C14 UNK H   1      33.873  21.474 194.413  0.00  0.00    +0.000 C 
ATOM     15  C15 UNK H   1      32.717  20.822 195.049  0.00  0.00    +0.000 C 
ATOM     16  C16 UNK H   1      33.965  18.743 195.365  0.00  0.00    +0.000 C 
ATOM     17  C17 UNK H   1      32.812  19.405 195.484  0.00  0.00    +0.000 C 
ATOM     18  O22 UNK H   1      31.651  21.434 195.168  0.00  0.00    +0.000 OA
ENDROOT
BRANCH   6  19
ATOM     19  O18 UNK H   1      39.068  14.238 195.959  0.00  0.00    +0.000 OA
ATOM     20  H9  UNK H   1      38.385  13.444 196.043  0.00  0.00    +0.000 HD
ENDBRANCH   6  19
BRANCH   5  21
ATOM     21  O19 UNK H   1      40.445  16.383 194.679  0.00  0.00    +0.000 OA
ATOM     22  H10 UNK H   1      40.734  17.163 194.039  0.00  0.00    +0.000 HD
ENDBRANCH   5  21
BRANCH   7  23
ATOM     23  O20 UNK H   1      37.733  20.675 195.439  0.00  0.00    +0.000 OA
ATOM     24  H11 UNK H   1      37.867  21.713 195.347  0.00  0.00    +0.000 HD
ENDBRANCH   7  23
BRANCH  17  25
ATOM     25  O21 UNK H   1      31.699  18.767 196.018  0.00  0.00    +0.000 OA
ATOM     26  H12 UNK H   1      30.835  19.094 195.518  0.00  0.00    +0.000 HD
ENDBRANCH  17  25
TORSDOF 4
REMARK  Name = Brazilin.pdb
REMARK  4 active torsions:
REMARK  status: ('A' for Active; 'I' for Inactive)
REMARK    1  A    between atoms: C3_3  and  O3_6
REMARK    2  A    between atoms: C4_4  and  O4_7
REMARK    3  A    between atoms: C10_10  and  O1_16
REMARK    4  A    between atoms: C19_19  and  O1_21
REMARK                            x       y       z     vdW  Elec       q    Type
REMARK                         _______ _______ _______ _____ _____    ______ ____
ROOT
ATOM      1 3C45 GLC     4      36.397  15.963 191.777  0.00  0.00    +0.000 A 
ATOM      2  C2  GLC     4      36.513  14.560 192.189  0.00  0.00    +0.000 A 
ATOM      3  C3  GLC     4      35.473  14.016 192.828  0.00  0.00    +0.000 A 
ATOM      4  C4  GLC     4      34.260  14.805 193.084  0.00  0.00    +0.000 A 
ATOM      5  C5  GLC     4      34.161  16.080 192.688  0.00  0.00    +0.000 A 
ATOM      6 3C45 GLC     4      35.299  16.673 192.014  0.00  0.00    +0.000 A 
ATOM      7  C9  GLC     4      35.516  18.105 191.533  0.00  0.00    +0.000 C 
ATOM      8  C10 GLC     4      36.474  17.821 190.419  0.00  0.00    +0.000 C 
ATOM      9  C11 GLC     4      37.444  16.835 191.120  0.00  0.00    +0.000 C 
ATOM     10  C12 GLC     4      37.053  19.100 189.823  0.00  0.00    +0.000 C 
ATOM     11  O13 GLC     4      35.948  19.864 189.332  0.00  0.00    +0.000 OA
ATOM     12  C14 GLC     4      34.719  19.876 189.912  0.00  0.00    +0.000 A 
ATOM     13  C15 GLC     4      34.409  18.996 191.054  0.00  0.00    +0.000 A 
ATOM     14  C17 GLC     4      33.201  19.048 191.609  0.00  0.00    +0.000 A 
ATOM     15  C18 GLC     4      32.203  19.960 191.066  0.00  0.00    +0.000 A 
ATOM     16  C19 GLC     4      32.498  20.744 190.030  0.00  0.00    +0.000 A 
ATOM     17  C20 GLC     4      33.801  20.703 189.432  0.00  0.00    +0.000 A 
ENDROOT
BRANCH   3  18
ATOM     18  O3  GLC     4      35.489  12.707 193.285  0.00  0.00    +0.000 OA
ATOM     19  H3  GLC     4      34.862  12.559 194.052  0.00  0.00    +0.000 HD
ENDBRANCH   3  18
BRANCH   4  20
ATOM     20  O4  GLC     4      33.231  14.192 193.758  0.00  0.00    +0.000 OA
ATOM     21  H4  GLC     4      33.386  14.272 194.763  0.00  0.00    +0.000 HD
ENDBRANCH   4  20
BRANCH   8  22
ATOM     22  O1  GLC     4      35.777  17.147 189.354  0.00  0.00    +0.000 OA
ATOM     23  H10 GLC     4      36.119  17.425 188.478  0.00  0.00    +0.000 HD
ENDBRANCH   8  22
BRANCH  16  24
ATOM     24  O1  GLC     4      31.568  21.592 189.531  0.00  0.00    +0.000 OA
ATOM     25  H14 GLC     4      31.711  22.443 189.930  0.00  0.00    +0.000 HD
ENDBRANCH  16  24
TORSDOF 4
ENDMDL
MODEL 5
REMARK VINA RESULT:    -3.754      3.822      6.459
REMARK INTER + INTRA:          -4.632
REMARK INTER:                  -4.632
REMARK INTRA:                   0.000
REMARK UNBOUND:                 0.000
REMARK  Name = HEMCA.pdb
REMARK  4 active torsions:
REMARK  status: ('A' for Active; 'I' for Inactive)
REMARK    1  A    between atoms: C5_5  and  O19_19
REMARK    2  A    between atoms: C6_6  and  O18_18
REMARK    3  A    between atoms: C7_7  and  O20_20
REMARK    4  A    between atoms: C17_17  and  O21_21
REMARK                            x       y       z     vdW  Elec       q    Type
REMARK                         _______ _______ _______ _____ _____    ______ ____
ROOT
ATOM      1  C1  UNK H   1      36.108  12.601 194.679  0.00  0.00    +0.000 A 
ATOM      2  C2  UNK H   1      36.888  13.680 194.628  0.00  0.00    +0.000 A 
ATOM      3  C3  UNK H   1      36.620  11.302 194.200  0.00  0.00    +0.000 A 
ATOM      4  C4  UNK H   1      38.244  13.581 194.085  0.00  0.00    +0.000 A 
ATOM      5  C5  UNK H   1      37.849  11.221 193.695  0.00  0.00    +0.000 A 
ATOM      6  C6  UNK H   1      38.697  12.413 193.633  0.00  0.00    +0.000 A 
ATOM      7  C7  UNK H   1      33.891  11.423 194.967  0.00  0.00    +0.000 C 
ATOM      8  C8  UNK H   1      34.721  12.624 195.155  0.00  0.00    +0.000 C 
ATOM      9  C9  UNK H   1      34.667  10.114 195.106  0.00  0.00    +0.000 C 
ATOM     10  O10 UNK H   1      35.838  10.150 194.296  0.00  0.00    +0.000 OA
ATOM     11  C11 UNK H   1      32.642  11.631 195.883  0.00  0.00    +0.000 C 
ATOM     12  C12 UNK H   1      32.691  13.130 195.972  0.00  0.00    +0.000 C 
ATOM     13  C13 UNK H   1      33.983  13.622 195.642  0.00  0.00    +0.000 C 
ATOM     14  C14 UNK H   1      31.729  13.917 196.437  0.00  0.00    +0.000 C 
ATOM     15  C15 UNK H   1      32.026  15.351 196.578  0.00  0.00    +0.000 C 
ATOM     16  C16 UNK H   1      34.341  15.022 195.861  0.00  0.00    +0.000 C 
ATOM     17  C17 UNK H   1      33.396  15.855 196.303  0.00  0.00    +0.000 C 
ATOM     18  O22 UNK H   1      31.152  16.127 196.980  0.00  0.00    +0.000 OA
ENDROOT
BRANCH   6  19
ATOM     19  O18 UNK H   1      39.984  12.322 193.115  0.00  0.00    +0.000 OA
ATOM     20  H9  UNK H   1      40.668  12.726 193.802  0.00  0.00    +0.000 HD
ENDBRANCH   6  19
BRANCH   5  21
ATOM     21  O19 UNK H   1      38.337   9.998 193.250  0.00  0.00    +0.000 OA
ATOM     22  H10 UNK H   1      37.968   9.802 192.287  0.00  0.00    +0.000 HD
ENDBRANCH   5  21
BRANCH   7  23
ATOM     23  O20 UNK H   1      33.454  11.544 193.612  0.00  0.00    +0.000 OA
ATOM     24  H11 UNK H   1      32.693  12.265 193.552  0.00  0.00    +0.000 HD
ENDBRANCH   7  23
BRANCH  17  25
ATOM     25  O21 UNK H   1      33.695  17.197 196.507  0.00  0.00    +0.000 OA
ATOM     26  H12 UNK H   1      32.820  17.716 196.766  0.00  0.00    +0.000 HD
ENDBRANCH  17  25
TORSDOF 4
REMARK  Name = Brazilin.pdb
REMARK  4 active torsions:
REMARK  status: ('A' for Active; 'I' for Inactive)
REMARK    1  A    between atoms: C3_3  and  O3_6
REMARK    2  A    between atoms: C4_4  and  O4_7
REMARK    3  A    between atoms: C10_10  and  O1_16
REMARK    4  A    between atoms: C19_19  and  O1_21
REMARK                            x       y       z     vdW  Elec       q    Type
REMARK                         _______ _______ _______ _____ _____    ______ ____
ROOT
ATOM      1 3C45 GLC     4      37.826  11.812 197.879  0.00  0.00    +0.000 A 
ATOM      2  C2  GLC     4      39.190  12.281 197.612  0.00  0.00    +0.000 A 
ATOM      3  C3  GLC     4      39.414  13.597 197.677  0.00  0.00    +0.000 A 
ATOM      4  C4  GLC     4      38.326  14.522 198.023  0.00  0.00    +0.000 A 
ATOM      5  C5  GLC     4      37.089  14.079 198.281  0.00  0.00    +0.000 A 
ATOM      6 3C45 GLC     4      36.845  12.652 198.187  0.00  0.00    +0.000 A 
ATOM      7  C9  GLC     4      35.543  11.870 198.334  0.00  0.00    +0.000 C 
ATOM      8  C10 GLC     4      36.118  10.568 198.794  0.00  0.00    +0.000 C 
ATOM      9  C11 GLC     4      37.288  10.401 197.791  0.00  0.00    +0.000 C 
ATOM     10  C12 GLC     4      35.063   9.469 198.862  0.00  0.00    +0.000 C 
ATOM     11  O13 GLC     4      34.063   9.912 199.783  0.00  0.00    +0.000 OA
ATOM     12  C14 GLC     4      33.704  11.213 199.942  0.00  0.00    +0.000 A 
ATOM     13  C15 GLC     4      34.418  12.291 199.233  0.00  0.00    +0.000 A 
ATOM     14  C17 GLC     4      34.029  13.552 199.398  0.00  0.00    +0.000 A 
ATOM     15  C18 GLC     4      32.915  13.845 200.291  0.00  0.00    +0.000 A 
ATOM     16  C19 GLC     4      32.285  12.860 200.929  0.00  0.00    +0.000 A 
ATOM     17  C20 GLC     4      32.691  11.496 200.749  0.00  0.00    +0.000 A 
ENDROOT
BRANCH   3  18
ATOM     18  O3  GLC     4      40.659  14.148 197.416  0.00  0.00    +0.000 OA
ATOM     19  H3  GLC     4      40.765  15.063 197.811  0.00  0.00    +0.000 HD
ENDBRANCH   3  18
BRANCH   4  20
ATOM     20  O4  GLC     4      38.618  15.864 198.061  0.00  0.00    +0.000 OA
ATOM     21  H4  GLC     4      38.170  16.333 197.273  0.00  0.00    +0.000 HD
ENDBRANCH   4  20
BRANCH   8  22
ATOM     22  O1  GLC     4      36.637  10.725 200.129  0.00  0.00    +0.000 OA
ATOM     23  H10 GLC     4      36.970   9.872 200.480  0.00  0.00    +0.000 HD
ENDBRANCH   8  22
BRANCH  16  24
ATOM     24  O1  GLC     4      31.248  13.137 201.756  0.00  0.00    +0.000 OA
ATOM     25  H14 GLC     4      31.497  13.885 202.288  0.00  0.00    +0.000 HD
ENDBRANCH  16  24
TORSDOF 4
ENDMDL
MODEL 6
REMARK VINA RESULT:    -3.754      3.461      6.629
REMARK INTER + INTRA:          -4.631
REMARK INTER:                  -4.631
REMARK INTRA:                   0.000
REMARK UNBOUND:                 0.000
REMARK  Name = HEMCA.pdb
REMARK  4 active torsions:
REMARK  status: ('A' for Active; 'I' for Inactive)
REMARK    1  A    between atoms: C5_5  and  O19_19
REMARK    2  A    between atoms: C6_6  and  O18_18
REMARK    3  A    between atoms: C7_7  and  O20_20
REMARK    4  A    between atoms: C17_17  and  O21_21
REMARK                            x       y       z     vdW  Elec       q    Type
REMARK                         _______ _______ _______ _____ _____    ______ ____
ROOT
ATOM      1  C1  UNK H   1      41.637  18.849 195.407  0.00  0.00    +0.000 A 
ATOM      2  C2  UNK H   1      42.524  18.227 194.631  0.00  0.00    +0.000 A 
ATOM      3  C3  UNK H   1      40.671  19.791 194.808  0.00  0.00    +0.000 A 
ATOM      4  C4  UNK H   1      42.550  18.488 193.191  0.00  0.00    +0.000 A 
ATOM      5  C5  UNK H   1      40.709  20.033 193.499  0.00  0.00    +0.000 A 
ATOM      6  C6  UNK H   1      41.693  19.354 192.655  0.00  0.00    +0.000 A 
ATOM      7  C7  UNK H   1      40.703  19.583 197.638  0.00  0.00    +0.000 C 
ATOM      8  C8  UNK H   1      41.579  18.687 196.863  0.00  0.00    +0.000 C 
ATOM      9  C9  UNK H   1      39.409  19.951 196.912  0.00  0.00    +0.000 C 
ATOM     10  O10 UNK H   1      39.699  20.409 195.595  0.00  0.00    +0.000 OA
ATOM     11  C11 UNK H   1      40.585  18.930 199.052  0.00  0.00    +0.000 C 
ATOM     12  C12 UNK H   1      41.851  18.122 199.020  0.00  0.00    +0.000 C 
ATOM     13  C13 UNK H   1      42.302  17.927 197.686  0.00  0.00    +0.000 C 
ATOM     14  C14 UNK H   1      42.422  17.522 200.057  0.00  0.00    +0.000 C 
ATOM     15  C15 UNK H   1      43.581  16.655 199.793  0.00  0.00    +0.000 C 
ATOM     16  C16 UNK H   1      43.387  16.997 197.380  0.00  0.00    +0.000 C 
ATOM     17  C17 UNK H   1      44.008  16.393 198.395  0.00  0.00    +0.000 C 
ATOM     18  O22 UNK H   1      44.163  16.099 200.730  0.00  0.00    +0.000 OA
ENDROOT
BRANCH   6  19
ATOM     19  O18 UNK H   1      41.722  19.602 191.287  0.00  0.00    +0.000 OA
ATOM     20  H9  UNK H   1      41.808  18.693 190.767  0.00  0.00    +0.000 HD
ENDBRANCH   6  19
BRANCH   5  21
ATOM     21  O19 UNK H   1      39.795  20.914 192.931  0.00  0.00    +0.000 OA
ATOM     22  H10 UNK H   1      38.819  20.605 193.162  0.00  0.00    +0.000 HD
ENDBRANCH   5  21
BRANCH   7  23
ATOM     23  O20 UNK H   1      41.493  20.765 197.774  0.00  0.00    +0.000 OA
ATOM     24  H11 UNK H   1      42.400  20.528 198.248  0.00  0.00    +0.000 HD
ENDBRANCH   7  23
BRANCH  17  25
ATOM     25  O21 UNK H   1      45.056  15.515 198.142  0.00  0.00    +0.000 OA
ATOM     26  H12 UNK H   1      44.671  14.597 197.807  0.00  0.00    +0.000 HD
ENDBRANCH  17  25
TORSDOF 4
REMARK  Name = Brazilin.pdb
REMARK  4 active torsions:
REMARK  status: ('A' for Active; 'I' for Inactive)
REMARK    1  A    between atoms: C3_3  and  O3_6
REMARK    2  A    between atoms: C4_4  and  O4_7
REMARK    3  A    between atoms: C10_10  and  O1_16
REMARK    4  A    between atoms: C19_19  and  O1_21
REMARK                            x       y       z     vdW  Elec       q    Type
REMARK                         _______ _______ _______ _____ _____    ______ ____
ROOT
ATOM      1 3C45 GLC     4      39.258  16.170 194.414  0.00  0.00    +0.000 A 
ATOM      2  C2  GLC     4      39.652  15.918 193.023  0.00  0.00    +0.000 A 
ATOM      3  C3  GLC     4      40.751  15.186 192.816  0.00  0.00    +0.000 A 
ATOM      4  C4  GLC     4      41.512  14.646 193.951  0.00  0.00    +0.000 A 
ATOM      5  C5  GLC     4      41.132  14.870 195.215  0.00  0.00    +0.000 A 
ATOM      6 3C45 GLC     4      39.952  15.683 195.437  0.00  0.00    +0.000 A 
ATOM      7  C9  GLC     4      39.334  16.177 196.741  0.00  0.00    +0.000 C 
ATOM      8  C10 GLC     4      37.916  16.304 196.280  0.00  0.00    +0.000 C 
ATOM      9  C11 GLC     4      38.120  17.026 194.923  0.00  0.00    +0.000 C 
ATOM     10  C12 GLC     4      37.032  16.973 197.327  0.00  0.00    +0.000 C 
ATOM     11  O13 GLC     4      37.092  16.157 198.500  0.00  0.00    +0.000 OA
ATOM     12  C14 GLC     4      38.194  15.460 198.882  0.00  0.00    +0.000 A 
ATOM     13  C15 GLC     4      39.397  15.415 198.031  0.00  0.00    +0.000 A 
ATOM     14  C17 GLC     4      40.464  14.737 198.445  0.00  0.00    +0.000 A 
ATOM     15  C18 GLC     4      40.417  14.039 199.723  0.00  0.00    +0.000 A 
ATOM     16  C19 GLC     4      39.320  14.085 200.477  0.00  0.00    +0.000 A 
ATOM     17  C20 GLC     4      38.167  14.822 200.044  0.00  0.00    +0.000 A 
ENDROOT
BRANCH   3  18
ATOM     18  O3  GLC     4      41.226  14.911 191.543  0.00  0.00    +0.000 OA
ATOM     19  H3  GLC     4      40.671  15.339 190.825  0.00  0.00    +0.000 HD
ENDBRANCH   3  18
BRANCH   4  20
ATOM     20  O4  GLC     4      42.640  13.912 193.671  0.00  0.00    +0.000 OA
ATOM     21  H4  GLC     4      43.021  14.202 192.771  0.00  0.00    +0.000 HD
ENDBRANCH   4  20
BRANCH   8  22
ATOM     22  O1  GLC     4      37.371  14.990 196.057  0.00  0.00    +0.000 OA
ATOM     23  H10 GLC     4      37.023  14.607 196.890  0.00  0.00    +0.000 HD
ENDBRANCH   8  22
BRANCH  16  24
ATOM     24  O1  GLC     4      39.282  13.437 201.665  0.00  0.00    +0.000 OA
ATOM     25  H14 GLC     4      39.750  12.616 201.559  0.00  0.00    +0.000 HD
ENDBRANCH  16  24
TORSDOF 4
ENDMDL
MODEL 7
REMARK VINA RESULT:    -3.753      5.120      9.564
REMARK INTER + INTRA:          -4.631
REMARK INTER:                  -4.631
REMARK INTRA:                   0.000
REMARK UNBOUND:                 0.000
REMARK  Name = HEMCA.pdb
REMARK  4 active torsions:
REMARK  status: ('A' for Active; 'I' for Inactive)
REMARK    1  A    between atoms: C5_5  and  O19_19
REMARK    2  A    between atoms: C6_6  and  O18_18
REMARK    3  A    between atoms: C7_7  and  O20_20
REMARK    4  A    between atoms: C17_17  and  O21_21
REMARK                            x       y       z     vdW  Elec       q    Type
REMARK                         _______ _______ _______ _____ _____    ______ ____
ROOT
ATOM      1  C1  UNK H   1      38.334  15.888 200.809  0.00  0.00    +0.000 A 
ATOM      2  C2  UNK H   1      38.332  16.460 202.013  0.00  0.00    +0.000 A 
ATOM      3  C3  UNK H   1      37.144  15.149 200.345  0.00  0.00    +0.000 A 
ATOM      4  C4  UNK H   1      37.157  16.345 202.877  0.00  0.00    +0.000 A 
ATOM      5  C5  UNK H   1      36.083  15.037 201.141  0.00  0.00    +0.000 A 
ATOM      6  C6  UNK H   1      36.091  15.660 202.466  0.00  0.00    +0.000 A 
ATOM      7  C7  UNK H   1      39.453  15.065 198.698  0.00  0.00    +0.000 C 
ATOM      8  C8  UNK H   1      39.489  15.908 199.904  0.00  0.00    +0.000 C 
ATOM      9  C9  UNK H   1      38.063  14.949 198.073  0.00  0.00    +0.000 C 
ATOM     10  O10 UNK H   1      37.108  14.591 199.067  0.00  0.00    +0.000 OA
ATOM     11  C11 UNK H   1      40.618  15.581 197.793  0.00  0.00    +0.000 C 
ATOM     12  C12 UNK H   1      41.458  16.211 198.867  0.00  0.00    +0.000 C 
ATOM     13  C13 UNK H   1      40.688  16.478 200.032  0.00  0.00    +0.000 C 
ATOM     14  C14 UNK H   1      42.713  16.621 198.738  0.00  0.00    +0.000 C 
ATOM     15  C15 UNK H   1      43.316  17.348 199.867  0.00  0.00    +0.000 C 
ATOM     16  C16 UNK H   1      41.223  17.279 201.130  0.00  0.00    +0.000 C 
ATOM     17  C17 UNK H   1      42.491  17.690 201.054  0.00  0.00    +0.000 C 
ATOM     18  O22 UNK H   1      44.492  17.723 199.804  0.00  0.00    +0.000 OA
ENDROOT
BRANCH   6  19
ATOM     19  O18 UNK H   1      34.977  15.549 203.291  0.00  0.00    +0.000 OA
ATOM     20  H9  UNK H   1      35.191  14.893 204.083  0.00  0.00    +0.000 HD
ENDBRANCH   6  19
BRANCH   5  21
ATOM     21  O19 UNK H   1      34.958  14.349 200.704  0.00  0.00    +0.000 OA
ATOM     22  H10 UNK H   1      34.110  14.704 201.212  0.00  0.00    +0.000 HD
ENDBRANCH   5  21
BRANCH   7  23
ATOM     23  O20 UNK H   1      39.832  13.779 199.193  0.00  0.00    +0.000 OA
ATOM     24  H11 UNK H   1      39.619  13.723 200.220  0.00  0.00    +0.000 HD
ENDBRANCH   7  23
BRANCH  17  25
ATOM     25  O21 UNK H   1      43.040  18.440 202.087  0.00  0.00    +0.000 OA
ATOM     26  H12 UNK H   1      43.793  17.883 202.563  0.00  0.00    +0.000 HD
ENDBRANCH  17  25
TORSDOF 4
REMARK  Name = Brazilin.pdb
REMARK  4 active torsions:
REMARK  status: ('A' for Active; 'I' for Inactive)
REMARK    1  A    between atoms: C3_3  and  O3_6
REMARK    2  A    between atoms: C4_4  and  O4_7
REMARK    3  A    between atoms: C10_10  and  O1_16
REMARK    4  A    between atoms: C19_19  and  O1_21
REMARK                            x       y       z     vdW  Elec       q    Type
REMARK                         _______ _______ _______ _____ _____    ______ ____
ROOT
ATOM      1 3C45 GLC     4      36.590  18.947 199.621  0.00  0.00    +0.000 A 
ATOM      2  C2  GLC     4      35.751  19.282 200.776  0.00  0.00    +0.000 A 
ATOM      3  C3  GLC     4      36.342  19.878 201.816  0.00  0.00    +0.000 A 
ATOM      4  C4  GLC     4      37.776  20.194 201.779  0.00  0.00    +0.000 A 
ATOM      5  C5  GLC     4      38.528  19.897 200.711  0.00  0.00    +0.000 A 
ATOM      6 3C45 GLC     4      37.888  19.231 199.593  0.00  0.00    +0.000 A 
ATOM      7  C9  GLC     4      38.490  18.695 198.297  0.00  0.00    +0.000 C 
ATOM      8  C10 GLC     4      37.277  18.807 197.428  0.00  0.00    +0.000 C 
ATOM      9  C11 GLC     4      36.198  18.204 198.363  0.00  0.00    +0.000 C 
ATOM     10  C12 GLC     4      37.491  18.160 196.063  0.00  0.00    +0.000 C 
ATOM     11  O13 GLC     4      38.592  18.839 195.453  0.00  0.00    +0.000 OA
ATOM     12  C14 GLC     4      39.650  19.340 196.143  0.00  0.00    +0.000 A 
ATOM     13  C15 GLC     4      39.677  19.309 197.618  0.00  0.00    +0.000 A 
ATOM     14  C17 GLC     4      40.737  19.792 198.261  0.00  0.00    +0.000 A 
ATOM     15  C18 GLC     4      41.841  20.358 197.497  0.00  0.00    +0.000 A 
ATOM     16  C19 GLC     4      41.797  20.384 196.166  0.00  0.00    +0.000 A 
ATOM     17  C20 GLC     4      40.663  19.855 195.462  0.00  0.00    +0.000 A 
ENDROOT
BRANCH   3  18
ATOM     18  O3  GLC     4      35.646  20.213 202.968  0.00  0.00    +0.000 OA
ATOM     19  H3  GLC     4      35.002  20.967 202.823  0.00  0.00    +0.000 HD
ENDBRANCH   3  18
BRANCH   4  20
ATOM     20  O4  GLC     4      38.327  20.795 202.885  0.00  0.00    +0.000 OA
ATOM     21  H4  GLC     4      37.742  21.578 203.175  0.00  0.00    +0.000 HD
ENDBRANCH   4  20
BRANCH   8  22
ATOM     22  O1  GLC     4      36.994  20.198 197.186  0.00  0.00    +0.000 OA
ATOM     23  H10 GLC     4      36.049  20.399 197.352  0.00  0.00    +0.000 HD
ENDBRANCH   8  22
BRANCH  16  24
ATOM     24  O1  GLC     4      42.827  20.908 195.460  0.00  0.00    +0.000 OA
ATOM     25  H14 GLC     4      42.472  21.586 194.895  0.00  0.00    +0.000 HD
ENDBRANCH  16  24
TORSDOF 4
ENDMDL
MODEL 8
REMARK VINA RESULT:    -3.753      3.252      6.937
REMARK INTER + INTRA:          -4.631
REMARK INTER:                  -4.631
REMARK INTRA:                   0.000
REMARK UNBOUND:                 0.000
REMARK  Name = HEMCA.pdb
REMARK  4 active torsions:
REMARK  status: ('A' for Active; 'I' for Inactive)
REMARK    1  A    between atoms: C5_5  and  O19_19
REMARK    2  A    between atoms: C6_6  and  O18_18
REMARK    3  A    between atoms: C7_7  and  O20_20
REMARK    4  A    between atoms: C17_17  and  O21_21
REMARK                            x       y       z     vdW  Elec       q    Type
REMARK                         _______ _______ _______ _____ _____    ______ ____
ROOT
ATOM      1  C1  UNK H   1      40.106  19.261 196.450  0.00  0.00    +0.000 A 
ATOM      2  C2  UNK H   1      40.588  19.912 195.392  0.00  0.00    +0.000 A 
ATOM      3  C3  UNK H   1      39.464  20.014 197.545  0.00  0.00    +0.000 A 
ATOM      4  C4  UNK H   1      40.493  21.371 195.322  0.00  0.00    +0.000 A 
ATOM      5  C5  UNK H   1      39.393  21.342 197.482  0.00  0.00    +0.000 A 
ATOM      6  C6  UNK H   1      39.933  22.051 196.321  0.00  0.00    +0.000 A 
ATOM      7  C7  UNK H   1      39.836  17.226 197.924  0.00  0.00    +0.000 C 
ATOM      8  C8  UNK H   1      40.210  17.809 196.624  0.00  0.00    +0.000 C 
ATOM      9  C9  UNK H   1      38.668  17.942 198.602  0.00  0.00    +0.000 C 
ATOM     10  O10 UNK H   1      38.905  19.345 198.635  0.00  0.00    +0.000 OA
ATOM     11  C11 UNK H   1      39.702  15.691 197.670  0.00  0.00    +0.000 C 
ATOM     12  C12 UNK H   1      40.576  15.599 196.452  0.00  0.00    +0.000 C 
ATOM     13  C13 UNK H   1      40.725  16.869 195.831  0.00  0.00    +0.000 C 
ATOM     14  C14 UNK H   1      41.041  14.483 195.905  0.00  0.00    +0.000 C 
ATOM     15  C15 UNK H   1      41.760  14.595 194.626  0.00  0.00    +0.000 C 
ATOM     16  C16 UNK H   1      41.348  17.003 194.516  0.00  0.00    +0.000 C 
ATOM     17  C17 UNK H   1      41.854  15.909 193.941  0.00  0.00    +0.000 C 
ATOM     18  O22 UNK H   1      42.237  13.587 194.095  0.00  0.00    +0.000 OA
ENDROOT
BRANCH   6  19
ATOM     19  O18 UNK H   1      39.847  23.438 196.254  0.00  0.00    +0.000 OA
ATOM     20  H9  UNK H   1      38.922  23.751 196.642  0.00  0.00    +0.000 HD
ENDBRANCH   6  19
BRANCH   5  21
ATOM     21  O19 UNK H   1      38.782  22.053 198.508  0.00  0.00    +0.000 OA
ATOM     22  H10 UNK H   1      39.245  21.820 199.421  0.00  0.00    +0.000 HD
ENDBRANCH   5  21
BRANCH   7  23
ATOM     23  O20 UNK H   1      41.008  17.431 198.716  0.00  0.00    +0.000 OA
ATOM     24  H11 UNK H   1      41.816  17.673 198.090  0.00  0.00    +0.000 HD
ENDBRANCH   7  23
BRANCH  17  25
ATOM     25  O21 UNK H   1      42.469  16.002 192.698  0.00  0.00    +0.000 OA
ATOM     26  H12 UNK H   1      43.171  15.226 192.596  0.00  0.00    +0.000 HD
ENDBRANCH  17  25
TORSDOF 4
REMARK  Name = Brazilin.pdb
REMARK  4 active torsions:
REMARK  status: ('A' for Active; 'I' for Inactive)
REMARK    1  A    between atoms: C3_3  and  O3_6
REMARK    2  A    between atoms: C4_4  and  O4_7
REMARK    3  A    between atoms: C10_10  and  O1_16
REMARK    4  A    between atoms: C19_19  and  O1_21
REMARK                            x       y       z     vdW  Elec       q    Type
REMARK                         _______ _______ _______ _____ _____    ______ ____
ROOT
ATOM      1 3C45 GLC     4      36.810  19.425 194.741  0.00  0.00    +0.000 A 
ATOM      2  C2  GLC     4      36.879  20.732 194.079  0.00  0.00    +0.000 A 
ATOM      3  C3  GLC     4      37.599  20.818 192.957  0.00  0.00    +0.000 A 
ATOM      4  C4  GLC     4      38.275  19.633 192.412  0.00  0.00    +0.000 A 
ATOM      5  C5  GLC     4      38.191  18.442 193.017  0.00  0.00    +0.000 A 
ATOM      6 3C45 GLC     4      37.426  18.357 194.246  0.00  0.00    +0.000 A 
ATOM      7  C9  GLC     4      37.225  17.178 195.194  0.00  0.00    +0.000 C 
ATOM      8  C10 GLC     4      35.895  17.572 195.756  0.00  0.00    +0.000 C 
ATOM      9  C11 GLC     4      36.141  19.073 196.051  0.00  0.00    +0.000 C 
ATOM     10  C12 GLC     4      35.473  16.670 196.911  0.00  0.00    +0.000 C 
ATOM     11  O13 GLC     4      35.408  15.338 196.393  0.00  0.00    +0.000 OA
ATOM     12  C14 GLC     4      36.231  14.863 195.422  0.00  0.00    +0.000 A 
ATOM     13  C15 GLC     4      37.200  15.747 194.747  0.00  0.00    +0.000 A 
ATOM     14  C17 GLC     4      38.003  15.245 193.813  0.00  0.00    +0.000 A 
ATOM     15  C18 GLC     4      37.898  13.834 193.464  0.00  0.00    +0.000 A 
ATOM     16  C19 GLC     4      37.013  13.050 194.078  0.00  0.00    +0.000 A 
ATOM     17  C20 GLC     4      36.150  13.581 195.094  0.00  0.00    +0.000 A 
ENDROOT
BRANCH   3  18
ATOM     18  O3  GLC     4      37.752  22.012 192.267  0.00  0.00    +0.000 OA
ATOM     19  H3  GLC     4      37.874  22.796 192.879  0.00  0.00    +0.000 HD
ENDBRANCH   3  18
BRANCH   4  20
ATOM     20  O4  GLC     4      39.012  19.791 191.262  0.00  0.00    +0.000 OA
ATOM     21  H4  GLC     4      38.830  19.011 190.631  0.00  0.00    +0.000 HD
ENDBRANCH   4  20
BRANCH   8  22
ATOM     22  O1  GLC     4      34.889  17.433 194.734  0.00  0.00    +0.000 OA
ATOM     23  H10 GLC     4      34.979  16.576 194.265  0.00  0.00    +0.000 HD
ENDBRANCH   8  22
BRANCH  16  24
ATOM     24  O1  GLC     4      36.921  11.740 193.752  0.00  0.00    +0.000 OA
ATOM     25  H14 GLC     4      36.855  11.683 192.805  0.00  0.00    +0.000 HD
ENDBRANCH  16  24
TORSDOF 4
ENDMDL
MODEL 9
REMARK VINA RESULT:    -3.753      5.050      8.995
REMARK INTER + INTRA:          -4.631
REMARK INTER:                  -4.631
REMARK INTRA:                   0.000
REMARK UNBOUND:                 0.000
REMARK  Name = HEMCA.pdb
REMARK  4 active torsions:
REMARK  status: ('A' for Active; 'I' for Inactive)
REMARK    1  A    between atoms: C5_5  and  O19_19
REMARK    2  A    between atoms: C6_6  and  O18_18
REMARK    3  A    between atoms: C7_7  and  O20_20
REMARK    4  A    between atoms: C17_17  and  O21_21
REMARK                            x       y       z     vdW  Elec       q    Type
REMARK                         _______ _______ _______ _____ _____    ______ ____
ROOT
ATOM      1  C1  UNK H   1      37.427  18.102 199.909  0.00  0.00    +0.000 A 
ATOM      2  C2  UNK H   1      37.548  18.077 201.236  0.00  0.00    +0.000 A 
ATOM      3  C3  UNK H   1      36.712  19.217 199.257  0.00  0.00    +0.000 A 
ATOM      4  C4  UNK H   1      36.962  19.146 202.046  0.00  0.00    +0.000 A 
ATOM      5  C5  UNK H   1      36.170  20.179 200.000  0.00  0.00    +0.000 A 
ATOM      6  C6  UNK H   1      36.298  20.140 201.458  0.00  0.00    +0.000 A 
ATOM      7  C7  UNK H   1      37.558  17.069 197.606  0.00  0.00    +0.000 C 
ATOM      8  C8  UNK H   1      37.935  17.044 199.029  0.00  0.00    +0.000 C 
ATOM      9  C9  UNK H   1      37.444  18.480 197.029  0.00  0.00    +0.000 C 
ATOM     10  O10 UNK H   1      36.623  19.287 197.867  0.00  0.00    +0.000 OA
ATOM     11  C11 UNK H   1      38.529  16.069 196.899  0.00  0.00    +0.000 C 
ATOM     12  C12 UNK H   1      38.880  15.232 198.096  0.00  0.00    +0.000 C 
ATOM     13  C13 UNK H   1      38.610  15.927 199.306  0.00  0.00    +0.000 C 
ATOM     14  C14 UNK H   1      39.502  14.060 198.075  0.00  0.00    +0.000 C 
ATOM     15  C15 UNK H   1      39.887  13.466 199.365  0.00  0.00    +0.000 C 
ATOM     16  C16 UNK H   1      39.064  15.412 200.596  0.00  0.00    +0.000 C 
ATOM     17  C17 UNK H   1      39.670  14.223 200.624  0.00  0.00    +0.000 C 
ATOM     18  O22 UNK H   1      40.442  12.362 199.397  0.00  0.00    +0.000 OA
ENDROOT
BRANCH   6  19
ATOM     19  O18 UNK H   1      35.739  21.153 202.230  0.00  0.00    +0.000 OA
ATOM     20  H9  UNK H   1      36.181  22.072 201.976  0.00  0.00    +0.000 HD
ENDBRANCH   6  19
BRANCH   5  21
ATOM     21  O19 UNK H   1      35.503  21.234 199.389  0.00  0.00    +0.000 OA
ATOM     22  H10 UNK H   1      35.291  20.984 198.392  0.00  0.00    +0.000 HD
ENDBRANCH   5  21
BRANCH   7  23
ATOM     23  O20 UNK H   1      36.258  16.478 197.608  0.00  0.00    +0.000 OA
ATOM     24  H11 UNK H   1      35.780  16.678 196.695  0.00  0.00    +0.000 HD
ENDBRANCH   7  23
BRANCH  17  25
ATOM     25  O21 UNK H   1      40.101  13.694 201.835  0.00  0.00    +0.000 OA
ATOM     26  H12 UNK H   1      41.080  14.018 202.031  0.00  0.00    +0.000 HD
ENDBRANCH  17  25
TORSDOF 4
REMARK  Name = Brazilin.pdb
REMARK  4 active torsions:
REMARK  status: ('A' for Active; 'I' for Inactive)
REMARK    1  A    between atoms: C3_3  and  O3_6
REMARK    2  A    between atoms: C4_4  and  O4_7
REMARK    3  A    between atoms: C10_10  and  O1_16
REMARK    4  A    between atoms: C19_19  and  O1_21
REMARK                            x       y       z     vdW  Elec       q    Type
REMARK                         _______ _______ _______ _____ _____    ______ ____
ROOT
ATOM      1 3C45 GLC     4      40.392  20.342 199.927  0.00  0.00    +0.000 A 
ATOM      2  C2  GLC     4      40.177  21.116 201.155  0.00  0.00    +0.000 A 
ATOM      3  C3  GLC     4      40.469  20.522 202.316  0.00  0.00    +0.000 A 
ATOM      4  C4  GLC     4      41.001  19.153 202.342  0.00  0.00    +0.000 A 
ATOM      5  C5  GLC     4      41.208  18.464 201.212  0.00  0.00    +0.000 A 
ATOM      6 3C45 GLC     4      40.870  19.103 199.955  0.00  0.00    +0.000 A 
ATOM      7  C9  GLC     4      40.909  18.550 198.533  0.00  0.00    +0.000 C 
ATOM      8  C10 GLC     4      41.117  19.838 197.801  0.00  0.00    +0.000 C 
ATOM      9  C11 GLC     4      40.069  20.739 198.503  0.00  0.00    +0.000 C 
ATOM     10  C12 GLC     4      41.015  19.658 196.290  0.00  0.00    +0.000 C 
ATOM     11  O13 GLC     4      42.026  18.717 195.917  0.00  0.00    +0.000 OA
ATOM     12  C14 GLC     4      42.422  17.681 196.702  0.00  0.00    +0.000 A 
ATOM     13  C15 GLC     4      41.897  17.521 198.070  0.00  0.00    +0.000 A 
ATOM     14  C17 GLC     4      42.293  16.485 198.805  0.00  0.00    +0.000 A 
ATOM     15  C18 GLC     4      43.252  15.539 198.248  0.00  0.00    +0.000 A 
ATOM     16  C19 GLC     4      43.722  15.702 197.013  0.00  0.00    +0.000 A 
ATOM     17  C20 GLC     4      43.292  16.810 196.209  0.00  0.00    +0.000 A 
ENDROOT
BRANCH   3  18
ATOM     18  O3  GLC     4      40.278  21.154 203.536  0.00  0.00    +0.000 OA
ATOM     19  H3  GLC     4      40.715  22.055 203.575  0.00  0.00    +0.000 HD
ENDBRANCH   3  18
BRANCH   4  20
ATOM     20  O4  GLC     4      41.268  18.595 203.568  0.00  0.00    +0.000 OA
ATOM     21  H4  GLC     4      42.167  18.113 203.536  0.00  0.00    +0.000 HD
ENDBRANCH   4  20
BRANCH   8  22
ATOM     22  O1  GLC     4      42.444  20.328 198.070  0.00  0.00    +0.000 OA
ATOM     23  H10 GLC     4      42.771  20.002 198.935  0.00  0.00    +0.000 HD
ENDBRANCH   8  22
BRANCH  16  24
ATOM     24  O1  GLC     4      44.610  14.819 196.499  0.00  0.00    +0.000 OA
ATOM     25  H14 GLC     4      44.694  15.003 195.570  0.00  0.00    +0.000 HD
ENDBRANCH  16  24
TORSDOF 4
ENDMDL
