MODEL 1
REMARK VINA RESULT:     0.000      0.000      0.000
REMARK INTER + INTRA:          -1.761
REMARK INTER:                   0.000
REMARK INTRA:                  -1.761
REMARK UNBOUND:                -1.761
REMARK  9 active torsions:
REMARK  status: ('A' for Active; 'I' for Inactive)
REMARK    1  A    between atoms: C70_1  and  C1_2 
REMARK    2  A    between atoms: C70_1  and  N12_20 
REMARK    3  A    between atoms: C1_2  and  C2_3 
REMARK    4  A    between atoms: C2_3  and  C3_4 
REMARK    5  A    between atoms: C2_3  and  O5_17 
REMARK       I    between atoms: C3_4  and  N1_6 
REMARK    6  A    between atoms: N1_6  and  C4_7 
REMARK    7  A    between atoms: C4_7  and  C13_8 
REMARK    8  A    between atoms: C4_7  and  C5_10 
REMARK    9  A    between atoms: C13_8  and  C7_9 
ROOT
HETATM    1  C70 BES A 501      36.566  17.762 197.174  1.00  6.08     0.232 C 
ENDROOT
BRANCH   1   2
HETATM    2  C1  BES A 501      36.819  18.791 196.245  1.00  6.71     0.068 C 
BRANCH   2   3
HETATM    3  C2  BES A 501      36.028  18.781 194.974  1.00  9.09     0.205 C 
BRANCH   3   4
HETATM    4  C3  BES A 501      36.949  18.471 193.829  1.00  8.29     0.227 C 
HETATM    5  O3  BES A 501      36.635  18.885 192.735  1.00  7.85    -0.277 OA
HETATM    6  N1  BES A 501      38.172  17.697 194.082  1.00  8.97    -0.246 NA
HETATM    7  H7  BES A 501      37.845  16.776 194.518  1.00  8.27     0.131 HD
BRANCH   6   8
HETATM    8  C4  BES A 501      39.144  17.321 193.055  1.00 10.85     0.169 C 
BRANCH   8   9
HETATM    9  C13 BES A 501      40.447  18.097 193.271  1.00  8.22     0.089 C 
BRANCH   9  10
HETATM   10  C7  BES A 501      40.515  18.648 194.708  1.00 11.21     0.029 A 
HETATM   11  C21 BES A 501      40.621  20.133 195.104  1.00  0.00     0.143 A 
HETATM   12  N22 BES A 501      40.661  20.213 196.641  1.00  0.00    -0.254 N 
HETATM   13  C23 BES A 501      40.581  18.778 197.196  1.00  0.00     0.207 A 
HETATM   14  N24 BES A 501      40.490  17.811 196.000  1.00  0.00    -0.353 N 
HETATM   15  H13 BES A 501      40.422  16.745 196.058  1.00  8.23     0.166 HD
ENDBRANCH   9  10
ENDBRANCH   8   9
BRANCH   8  16
HETATM   16  C5  BES A 501      39.426  15.864 193.217  1.00 10.09     0.192 C 
HETATM   17  O1  BES A 501      39.897  15.213 192.243  1.00  5.58    -0.647 OA
HETATM   18  O4  BES A 501      39.218  15.354 194.361  1.00  5.29    -0.647 OA
ENDBRANCH   8  16
ENDBRANCH   6   8
ENDBRANCH   3   4
BRANCH   3  19
HETATM   19  O5  BES A 501      34.958  17.733 195.056  1.00  8.27    -0.387 OA
HETATM   20  H15 BES A 501      35.397  16.800 195.259  1.00  8.22     0.210 HD
ENDBRANCH   3  19
ENDBRANCH   2   3
ENDBRANCH   1   2
BRANCH   1  21
HETATM   21  N12 BES A 501      37.282  16.494 196.735  1.00  8.22    -0.079 N 
HETATM   22  H14 BES A 501      37.233  16.408 195.670  1.00  8.22     0.274 HD
HETATM   23  H15 BES A 501      36.813  15.645 197.184  1.00  8.22     0.274 HD
HETATM   24  H1  BES A 501      38.306  16.539 197.041  1.00  8.22     0.274 HD
ENDBRANCH   1  21
TORSDOF 9
ENDMDL
MODEL 2
REMARK VINA RESULT:     0.000      4.800      6.042
REMARK INTER + INTRA:          -1.760
REMARK INTER:                   0.000
REMARK INTRA:                  -1.760
REMARK UNBOUND:                -1.761
REMARK  9 active torsions:
REMARK  status: ('A' for Active; 'I' for Inactive)
REMARK    1  A    between atoms: C70_1  and  C1_2 
REMARK    2  A    between atoms: C70_1  and  N12_20 
REMARK    3  A    between atoms: C1_2  and  C2_3 
REMARK    4  A    between atoms: C2_3  and  C3_4 
REMARK    5  A    between atoms: C2_3  and  O5_17 
REMARK       I    between atoms: C3_4  and  N1_6 
REMARK    6  A    between atoms: N1_6  and  C4_7 
REMARK    7  A    between atoms: C4_7  and  C13_8 
REMARK    8  A    between atoms: C4_7  and  C5_10 
REMARK    9  A    between atoms: C13_8  and  C7_9 
ROOT
HETATM    1  C70 BES A 501      38.144  14.403 197.485  1.00  6.08     0.232 C 
ENDROOT
BRANCH   1   2
HETATM    2  C1  BES A 501      38.834  14.974 198.573  1.00  6.71     0.068 C 
BRANCH   2   3
HETATM    3  C2  BES A 501      39.130  16.439 198.507  1.00  9.09     0.205 C 
BRANCH   3   4
HETATM    4  C3  BES A 501      40.613  16.632 198.366  1.00  8.29     0.227 C 
HETATM    5  O3  BES A 501      41.081  17.669 198.778  1.00  7.85    -0.277 OA
HETATM    6  N1  BES A 501      41.417  15.569 197.748  1.00  8.97    -0.246 NA
HETATM    7  H7  BES A 501      40.996  15.418 196.775  1.00  8.27     0.131 HD
BRANCH   6   8
HETATM    8  C4  BES A 501      42.864  15.637 197.542  1.00 10.85     0.169 C 
BRANCH   8   9
HETATM    9  C13 BES A 501      43.563  14.644 198.476  1.00  8.22     0.089 C 
BRANCH   9  10
HETATM   10  C7  BES A 501      42.567  13.581 198.978  1.00 11.21     0.029 A 
HETATM   11  C21 BES A 501      42.193  13.314 200.448  1.00  0.00     0.143 A 
HETATM   12  N22 BES A 501      41.165  12.168 200.476  1.00  0.00    -0.254 N 
HETATM   13  C23 BES A 501      40.904  11.726 199.024  1.00  0.00     0.207 A 
HETATM   14  N24 BES A 501      41.771  12.600 198.097  1.00  0.00    -0.353 N 
HETATM   15  H13 BES A 501      41.812  12.536 197.030  1.00  8.23     0.166 HD
ENDBRANCH   9  10
ENDBRANCH   8   9
BRANCH   8  16
HETATM   16  C5  BES A 501      43.136  15.233 196.130  1.00 10.09     0.192 C 
HETATM   17  O1  BES A 501      44.219  15.583 195.584  1.00  5.58    -0.647 OA
HETATM   18  O4  BES A 501      42.269  14.505 195.555  1.00  5.29    -0.647 OA
ENDBRANCH   8  16
ENDBRANCH   6   8
ENDBRANCH   3   4
BRANCH   3  19
HETATM   19  O5  BES A 501      38.430  17.042 197.325  1.00  8.27    -0.387 OA
HETATM   20  H15 BES A 501      38.120  18.017 197.562  1.00  8.22     0.210 HD
ENDBRANCH   3  19
ENDBRANCH   2   3
ENDBRANCH   1   2
BRANCH   1  21
HETATM   21  N12 BES A 501      39.115  14.158 196.340  1.00  8.22    -0.079 N 
HETATM   22  H14 BES A 501      40.118  14.270 196.694  1.00  8.22     0.274 HD
HETATM   23  H15 BES A 501      38.931  14.863 195.558  1.00  8.22     0.274 HD
HETATM   24  H1  BES A 501      38.980  13.165 195.964  1.00  8.22     0.274 HD
ENDBRANCH   1  21
TORSDOF 9
ENDMDL
MODEL 3
REMARK VINA RESULT:     0.001      5.443      7.551
REMARK INTER + INTRA:          -1.760
REMARK INTER:                   0.000
REMARK INTRA:                  -1.760
REMARK UNBOUND:                -1.761
REMARK  9 active torsions:
REMARK  status: ('A' for Active; 'I' for Inactive)
REMARK    1  A    between atoms: C70_1  and  C1_2 
REMARK    2  A    between atoms: C70_1  and  N12_20 
REMARK    3  A    between atoms: C1_2  and  C2_3 
REMARK    4  A    between atoms: C2_3  and  C3_4 
REMARK    5  A    between atoms: C2_3  and  O5_17 
REMARK       I    between atoms: C3_4  and  N1_6 
REMARK    6  A    between atoms: N1_6  and  C4_7 
REMARK    7  A    between atoms: C4_7  and  C13_8 
REMARK    8  A    between atoms: C4_7  and  C5_10 
REMARK    9  A    between atoms: C13_8  and  C7_9 
ROOT
HETATM    1  C70 BES A 501      39.138  15.033 198.690  1.00  6.08     0.232 C 
ENDROOT
BRANCH   1   2
HETATM    2  C1  BES A 501      40.012  15.120 199.792  1.00  6.71     0.068 C 
BRANCH   2   3
HETATM    3  C2  BES A 501      39.562  14.500 201.077  1.00  9.09     0.205 C 
BRANCH   3   4
HETATM    4  C3  BES A 501      39.307  15.587 202.081  1.00  8.29     0.227 C 
HETATM    5  O3  BES A 501      39.420  15.302 203.252  1.00  7.85    -0.277 OA
HETATM    6  N1  BES A 501      38.943  16.930 201.606  1.00  8.97    -0.246 NA
HETATM    7  H7  BES A 501      38.062  16.796 201.014  1.00  8.27     0.131 HD
BRANCH   6   8
HETATM    8  C4  BES A 501      38.660  18.070 202.478  1.00 10.85     0.169 C 
BRANCH   8   9
HETATM    9  C13 BES A 501      39.783  19.105 202.352  1.00  8.22     0.089 C 
BRANCH   9  10
HETATM   10  C7  BES A 501      40.584  18.877 201.056  1.00 11.21     0.029 A 
HETATM   11  C21 BES A 501      42.089  18.563 200.966  1.00  0.00     0.143 A 
HETATM   12  N22 BES A 501      42.456  18.415 199.478  1.00  0.00    -0.254 N 
HETATM   13  C23 BES A 501      41.178  18.637 198.648  1.00  0.00     0.207 A 
HETATM   14  N24 BES A 501      40.020  18.922 199.624  1.00  0.00    -0.353 N 
HETATM   15  H13 BES A 501      39.004  19.118 199.353  1.00  8.23     0.166 HD
ENDBRANCH   9  10
ENDBRANCH   8   9
BRANCH   8  16
HETATM   16  C5  BES A 501      37.386  18.691 202.006  1.00 10.09     0.192 C 
HETATM   17  O1  BES A 501      36.719  19.413 202.798  1.00  5.58    -0.647 OA
HETATM   18  O4  BES A 501      37.057  18.494 200.796  1.00  5.29    -0.647 OA
ENDBRANCH   8  16
ENDBRANCH   6   8
ENDBRANCH   3   4
BRANCH   3  19
HETATM   19  O5  BES A 501      38.299  13.724 200.847  1.00  8.27    -0.387 OA
HETATM   20  H15 BES A 501      38.175  13.021 201.617  1.00  8.22     0.210 HD
ENDBRANCH   3  19
ENDBRANCH   2   3
ENDBRANCH   1   2
BRANCH   1  21
HETATM   21  N12 BES A 501      38.050  16.088 198.821  1.00  8.22    -0.079 N 
HETATM   22  H14 BES A 501      37.717  16.379 197.847  1.00  8.22     0.274 HD
HETATM   23  H15 BES A 501      38.439  16.941 199.334  1.00  8.22     0.274 HD
HETATM   24  H1  BES A 501      37.227  15.684 199.372  1.00  8.22     0.274 HD
ENDBRANCH   1  21
TORSDOF 9
ENDMDL
MODEL 4
REMARK VINA RESULT:     0.001      7.275      8.745
REMARK INTER + INTRA:          -1.760
REMARK INTER:                   0.000
REMARK INTRA:                  -1.760
REMARK UNBOUND:                -1.761
REMARK  9 active torsions:
REMARK  status: ('A' for Active; 'I' for Inactive)
REMARK    1  A    between atoms: C70_1  and  C1_2 
REMARK    2  A    between atoms: C70_1  and  N12_20 
REMARK    3  A    between atoms: C1_2  and  C2_3 
REMARK    4  A    between atoms: C2_3  and  C3_4 
REMARK    5  A    between atoms: C2_3  and  O5_17 
REMARK       I    between atoms: C3_4  and  N1_6 
REMARK    6  A    between atoms: N1_6  and  C4_7 
REMARK    7  A    between atoms: C4_7  and  C13_8 
REMARK    8  A    between atoms: C4_7  and  C5_10 
REMARK    9  A    between atoms: C13_8  and  C7_9 
ROOT
HETATM    1  C70 BES A 501      44.297  13.749 201.662  1.00  6.08     0.232 C 
ENDROOT
BRANCH   1   2
HETATM    2  C1  BES A 501      43.762  14.343 200.501  1.00  6.71     0.068 C 
BRANCH   2   3
HETATM    3  C2  BES A 501      42.439  15.030 200.628  1.00  9.09     0.205 C 
BRANCH   3   4
HETATM    4  C3  BES A 501      41.408  14.252 199.861  1.00  8.29     0.227 C 
HETATM    5  O3  BES A 501      40.451  14.861 199.438  1.00  7.85    -0.277 OA
HETATM    6  N1  BES A 501      41.606  12.811 199.656  1.00  8.97    -0.246 NA
HETATM    7  H7  BES A 501      41.694  12.390 200.636  1.00  8.27     0.131 HD
BRANCH   6   8
HETATM    8  C4  BES A 501      40.675  11.939 198.937  1.00 10.85     0.169 C 
BRANCH   8   9
HETATM    9  C13 BES A 501      41.307  11.492 197.615  1.00  8.22     0.089 C 
BRANCH   9  10
HETATM   10  C7  BES A 501      42.835  11.684 197.654  1.00 11.21     0.029 A 
HETATM   11  C21 BES A 501      43.659  12.574 196.705  1.00  0.00     0.143 A 
HETATM   12  N22 BES A 501      45.140  12.460 197.113  1.00  0.00    -0.254 N 
HETATM   13  C23 BES A 501      45.231  11.499 198.313  1.00  0.00     0.207 A 
HETATM   14  N24 BES A 501      43.805  11.019 198.648  1.00  0.00    -0.353 N 
HETATM   15  H13 BES A 501      43.537  10.344 199.432  1.00  8.23     0.166 HD
ENDBRANCH   9  10
ENDBRANCH   8   9
BRANCH   8  16
HETATM   16  C5  BES A 501      40.446  10.732 199.786  1.00 10.09     0.192 C 
HETATM   17  O1  BES A 501      39.409  10.036 199.603  1.00  5.58    -0.647 OA
HETATM   18  O4  BES A 501      41.344  10.436 200.633  1.00  5.29    -0.647 OA
ENDBRANCH   8  16
ENDBRANCH   6   8
ENDBRANCH   3   4
BRANCH   3  19
HETATM   19  O5  BES A 501      42.043  15.098 202.073  1.00  8.27    -0.387 OA
HETATM   20  H15 BES A 501      40.997  15.168 202.147  1.00  8.22     0.210 HD
ENDBRANCH   3  19
ENDBRANCH   2   3
ENDBRANCH   1   2
BRANCH   1  21
HETATM   21  N12 BES A 501      43.620  12.408 201.904  1.00  8.22    -0.079 N 
HETATM   22  H14 BES A 501      42.875  12.517 202.663  1.00  8.22     0.274 HD
HETATM   23  H15 BES A 501      44.349  11.692 202.219  1.00  8.22     0.274 HD
HETATM   24  H1  BES A 501      43.159  12.073 200.998  1.00  8.22     0.274 HD
ENDBRANCH   1  21
TORSDOF 9
ENDMDL
MODEL 5
REMARK VINA RESULT:     0.001      9.022     10.701
REMARK INTER + INTRA:          -1.759
REMARK INTER:                   0.000
REMARK INTRA:                  -1.759
REMARK UNBOUND:                -1.761
REMARK  9 active torsions:
REMARK  status: ('A' for Active; 'I' for Inactive)
REMARK    1  A    between atoms: C70_1  and  C1_2 
REMARK    2  A    between atoms: C70_1  and  N12_20 
REMARK    3  A    between atoms: C1_2  and  C2_3 
REMARK    4  A    between atoms: C2_3  and  C3_4 
REMARK    5  A    between atoms: C2_3  and  O5_17 
REMARK       I    between atoms: C3_4  and  N1_6 
REMARK    6  A    between atoms: N1_6  and  C4_7 
REMARK    7  A    between atoms: C4_7  and  C13_8 
REMARK    8  A    between atoms: C4_7  and  C5_10 
REMARK    9  A    between atoms: C13_8  and  C7_9 
ROOT
HETATM    1  C70 BES A 501      43.336  12.480 201.238  1.00  6.08     0.232 C 
ENDROOT
BRANCH   1   2
HETATM    2  C1  BES A 501      41.964  12.501 201.560  1.00  6.71     0.068 C 
BRANCH   2   3
HETATM    3  C2  BES A 501      41.559  11.929 202.882  1.00  9.09     0.205 C 
BRANCH   3   4
HETATM    4  C3  BES A 501      40.772  10.672 202.650  1.00  8.29     0.227 C 
HETATM    5  O3  BES A 501      39.972  10.350 203.500  1.00  7.85    -0.277 OA
HETATM    6  N1  BES A 501      40.999   9.902 201.419  1.00  8.97    -0.246 NA
HETATM    7  H7  BES A 501      42.041   9.659 201.419  1.00  8.27     0.131 HD
BRANCH   6   8
HETATM    8  C4  BES A 501      40.307   8.658 201.079  1.00 10.85     0.169 C 
BRANCH   8   9
HETATM    9  C13 BES A 501      39.357   8.904 199.902  1.00  8.22     0.089 C 
BRANCH   9  10
HETATM   10  C7  BES A 501      39.747  10.193 199.153  1.00 11.21     0.029 A 
HETATM   11  C21 BES A 501      38.855  11.433 198.963  1.00  0.00     0.143 A 
HETATM   12  N22 BES A 501      39.654  12.474 198.156  1.00  0.00    -0.254 N 
HETATM   13  C23 BES A 501      41.039  11.876 197.846  1.00  0.00     0.207 A 
HETATM   14  N24 BES A 501      41.097  10.465 198.463  1.00  0.00    -0.353 N 
HETATM   15  H13 BES A 501      41.928   9.793 198.420  1.00  8.23     0.166 HD
ENDBRANCH   9  10
ENDBRANCH   8   9
BRANCH   8  16
HETATM   16  C5  BES A 501      41.344   7.670 200.654  1.00 10.09     0.192 C 
HETATM   17  O1  BES A 501      41.078   6.437 200.698  1.00  5.58    -0.647 OA
HETATM   18  O4  BES A 501      42.444   8.131 200.219  1.00  5.29    -0.647 OA
ENDBRANCH   8  16
ENDBRANCH   6   8
ENDBRANCH   3   4
BRANCH   3  19
HETATM   19  O5  BES A 501      42.783  11.613 203.690  1.00  8.27    -0.387 OA
HETATM   20  H15 BES A 501      43.600  11.472 203.046  1.00  8.22     0.210 HD
ENDBRANCH   3  19
ENDBRANCH   2   3
ENDBRANCH   1   2
BRANCH   1  21
HETATM   21  N12 BES A 501      43.724  11.089 200.759  1.00  8.22    -0.079 N 
HETATM   22  H14 BES A 501      44.636  11.144 200.204  1.00  8.22     0.274 HD
HETATM   23  H15 BES A 501      42.949  10.698 200.134  1.00  8.22     0.274 HD
HETATM   24  H1  BES A 501      43.859  10.446 201.604  1.00  8.22     0.274 HD
ENDBRANCH   1  21
TORSDOF 9
ENDMDL
MODEL 6
REMARK VINA RESULT:     0.001      7.605      9.275
REMARK INTER + INTRA:          -1.759
REMARK INTER:                   0.000
REMARK INTRA:                  -1.759
REMARK UNBOUND:                -1.761
REMARK  9 active torsions:
REMARK  status: ('A' for Active; 'I' for Inactive)
REMARK    1  A    between atoms: C70_1  and  C1_2 
REMARK    2  A    between atoms: C70_1  and  N12_20 
REMARK    3  A    between atoms: C1_2  and  C2_3 
REMARK    4  A    between atoms: C2_3  and  C3_4 
REMARK    5  A    between atoms: C2_3  and  O5_17 
REMARK       I    between atoms: C3_4  and  N1_6 
REMARK    6  A    between atoms: N1_6  and  C4_7 
REMARK    7  A    between atoms: C4_7  and  C13_8 
REMARK    8  A    between atoms: C4_7  and  C5_10 
REMARK    9  A    between atoms: C13_8  and  C7_9 
ROOT
HETATM    1  C70 BES A 501      35.227  15.773 205.669  1.00  6.08     0.232 C 
ENDROOT
BRANCH   1   2
HETATM    2  C1  BES A 501      34.812  16.449 204.503  1.00  6.71     0.068 C 
BRANCH   2   3
HETATM    3  C2  BES A 501      33.387  16.278 204.080  1.00  9.09     0.205 C 
BRANCH   3   4
HETATM    4  C3  BES A 501      33.349  15.494 202.800  1.00  8.29     0.227 C 
HETATM    5  O3  BES A 501      32.398  15.665 202.069  1.00  7.85    -0.277 OA
HETATM    6  N1  BES A 501      34.451  14.572 202.491  1.00  8.97    -0.246 NA
HETATM    7  H7  BES A 501      34.491  13.886 203.313  1.00  8.27     0.131 HD
BRANCH   6   8
HETATM    8  C4  BES A 501      34.529  13.745 201.287  1.00 10.85     0.169 C 
BRANCH   8   9
HETATM    9  C13 BES A 501      35.657  14.255 200.385  1.00  8.22     0.089 C 
BRANCH   9  10
HETATM   10  C7  BES A 501      36.636  15.132 201.189  1.00 11.21     0.029 A 
HETATM   11  C21 BES A 501      36.963  16.611 200.909  1.00  0.00     0.143 A 
HETATM   12  N22 BES A 501      37.988  17.077 201.960  1.00  0.00    -0.254 N 
HETATM   13  C23 BES A 501      38.294  15.887 202.888  1.00  0.00     0.207 A 
HETATM   14  N24 BES A 501      37.458  14.684 202.411  1.00  0.00    -0.353 N 
HETATM   15  H13 BES A 501      37.450  13.710 202.852  1.00  8.23     0.166 HD
ENDBRANCH   9  10
ENDBRANCH   8   9
BRANCH   8  16
HETATM   16  C5  BES A 501      34.858  12.353 201.719  1.00 10.09     0.192 C 
HETATM   17  O1  BES A 501      34.590  11.388 200.951  1.00  5.58    -0.647 OA
HETATM   18  O4  BES A 501      35.443  12.214 202.837  1.00  5.29    -0.647 OA
ENDBRANCH   8  16
ENDBRANCH   6   8
ENDBRANCH   3   4
BRANCH   3  19
HETATM   19  O5  BES A 501      32.630  15.539 205.143  1.00  8.27    -0.387 OA
HETATM   20  H15 BES A 501      31.768  15.109 204.725  1.00  8.22     0.210 HD
ENDBRANCH   3  19
ENDBRANCH   2   3
ENDBRANCH   1   2
BRANCH   1  21
HETATM   21  N12 BES A 501      35.495  14.313 205.340  1.00  8.22    -0.079 N 
HETATM   22  H14 BES A 501      36.133  13.890 206.088  1.00  8.22     0.274 HD
HETATM   23  H15 BES A 501      35.971  14.243 204.385  1.00  8.22     0.274 HD
HETATM   24  H1  BES A 501      34.570  13.776 205.317  1.00  8.22     0.274 HD
ENDBRANCH   1  21
TORSDOF 9
ENDMDL
MODEL 7
REMARK VINA RESULT:     0.001      2.831      5.276
REMARK INTER + INTRA:          -1.759
REMARK INTER:                   0.000
REMARK INTRA:                  -1.759
REMARK UNBOUND:                -1.761
REMARK  9 active torsions:
REMARK  status: ('A' for Active; 'I' for Inactive)
REMARK    1  A    between atoms: C70_1  and  C1_2 
REMARK    2  A    between atoms: C70_1  and  N12_20 
REMARK    3  A    between atoms: C1_2  and  C2_3 
REMARK    4  A    between atoms: C2_3  and  C3_4 
REMARK    5  A    between atoms: C2_3  and  O5_17 
REMARK       I    between atoms: C3_4  and  N1_6 
REMARK    6  A    between atoms: N1_6  and  C4_7 
REMARK    7  A    between atoms: C4_7  and  C13_8 
REMARK    8  A    between atoms: C4_7  and  C5_10 
REMARK    9  A    between atoms: C13_8  and  C7_9 
ROOT
HETATM    1  C70 BES A 501      40.457  15.411 190.997  1.00  6.08     0.232 C 
ENDROOT
BRANCH   1   2
HETATM    2  C1  BES A 501      39.732  15.269 192.197  1.00  6.71     0.068 C 
BRANCH   2   3
HETATM    3  C2  BES A 501      38.759  14.135 192.282  1.00  9.09     0.205 C 
BRANCH   3   4
HETATM    4  C3  BES A 501      37.364  14.691 192.321  1.00  8.29     0.227 C 
HETATM    5  O3  BES A 501      36.512  14.022 192.861  1.00  7.85    -0.277 OA
HETATM    6  N1  BES A 501      37.100  16.005 191.717  1.00  8.97    -0.246 NA
HETATM    7  H7  BES A 501      37.406  15.918 190.695  1.00  8.27     0.131 HD
BRANCH   6   8
HETATM    8  C4  BES A 501      35.788  16.651 191.679  1.00 10.85     0.169 C 
BRANCH   8   9
HETATM    9  C13 BES A 501      35.792  17.875 192.600  1.00  8.22     0.089 C 
BRANCH   9  10
HETATM   10  C7  BES A 501      37.236  18.321 192.901  1.00 11.21     0.029 A 
HETATM   11  C21 BES A 501      37.888  18.395 194.294  1.00  0.00     0.143 A 
HETATM   12  N22 BES A 501      39.335  18.890 194.115  1.00  0.00    -0.254 N 
HETATM   13  C23 BES A 501      39.577  19.123 192.612  1.00  0.00     0.207 A 
HETATM   14  N24 BES A 501      38.278  18.771 191.861  1.00  0.00    -0.353 N 
HETATM   15  H13 BES A 501      38.128  18.829 190.803  1.00  8.23     0.166 HD
ENDBRANCH   9  10
ENDBRANCH   8   9
BRANCH   8  16
HETATM   16  C5  BES A 501      35.556  17.112 190.277  1.00 10.09     0.192 C 
HETATM   17  O1  BES A 501      34.375  17.328 189.885  1.00  5.58    -0.647 OA
HETATM   18  O4  BES A 501      36.579  17.312 189.553  1.00  5.29    -0.647 OA
ENDBRANCH   8  16
ENDBRANCH   6   8
ENDBRANCH   3   4
BRANCH   3  19
HETATM   19  O5  BES A 501      38.912  13.249 191.082  1.00  8.27    -0.387 OA
HETATM   20  H15 BES A 501      39.929  13.169 190.834  1.00  8.22     0.210 HD
ENDBRANCH   3  19
ENDBRANCH   2   3
ENDBRANCH   1   2
BRANCH   1  21
HETATM   21  N12 BES A 501      39.580  16.083 189.951  1.00  8.22    -0.079 N 
HETATM   22  H14 BES A 501      38.786  15.422 189.674  1.00  8.22     0.274 HD
HETATM   23  H15 BES A 501      40.167  16.317 189.089  1.00  8.22     0.274 HD
HETATM   24  H1  BES A 501      39.168  16.983 190.357  1.00  8.22     0.274 HD
ENDBRANCH   1  21
TORSDOF 9
ENDMDL
MODEL 8
REMARK VINA RESULT:     0.001      3.901      5.903
REMARK INTER + INTRA:          -1.759
REMARK INTER:                   0.000
REMARK INTRA:                  -1.759
REMARK UNBOUND:                -1.761
REMARK  9 active torsions:
REMARK  status: ('A' for Active; 'I' for Inactive)
REMARK    1  A    between atoms: C70_1  and  C1_2 
REMARK    2  A    between atoms: C70_1  and  N12_20 
REMARK    3  A    between atoms: C1_2  and  C2_3 
REMARK    4  A    between atoms: C2_3  and  C3_4 
REMARK    5  A    between atoms: C2_3  and  O5_17 
REMARK       I    between atoms: C3_4  and  N1_6 
REMARK    6  A    between atoms: N1_6  and  C4_7 
REMARK    7  A    between atoms: C4_7  and  C13_8 
REMARK    8  A    between atoms: C4_7  and  C5_10 
REMARK    9  A    between atoms: C13_8  and  C7_9 
ROOT
HETATM    1  C70 BES A 501      34.722  13.653 196.369  1.00  6.08     0.232 C 
ENDROOT
BRANCH   1   2
HETATM    2  C1  BES A 501      35.988  13.034 196.343  1.00  6.71     0.068 C 
BRANCH   2   3
HETATM    3  C2  BES A 501      37.085  13.679 197.130  1.00  9.09     0.205 C 
BRANCH   3   4
HETATM    4  C3  BES A 501      38.108  14.232 196.180  1.00  8.29     0.227 C 
HETATM    5  O3  BES A 501      39.244  14.340 196.584  1.00  7.85    -0.277 OA
HETATM    6  N1  BES A 501      37.694  14.608 194.821  1.00  8.97    -0.246 NA
HETATM    7  H7  BES A 501      36.916  15.332 194.947  1.00  8.27     0.131 HD
BRANCH   6   8
HETATM    8  C4  BES A 501      38.587  15.166 193.805  1.00 10.85     0.169 C 
BRANCH   8   9
HETATM    9  C13 BES A 501      38.796  14.142 192.686  1.00  8.22     0.089 C 
BRANCH   9  10
HETATM   10  C7  BES A 501      37.684  13.076 192.714  1.00 11.21     0.029 A 
HETATM   11  C21 BES A 501      37.887  11.562 192.909  1.00  0.00     0.143 A 
HETATM   12  N22 BES A 501      36.503  10.888 192.868  1.00  0.00    -0.254 N 
HETATM   13  C23 BES A 501      35.444  11.985 192.648  1.00  0.00     0.207 A 
HETATM   14  N24 BES A 501      36.175  13.339 192.553  1.00  0.00    -0.353 N 
HETATM   15  H13 BES A 501      35.715  14.292 192.401  1.00  8.23     0.166 HD
ENDBRANCH   9  10
ENDBRANCH   8   9
BRANCH   8  16
HETATM   16  C5  BES A 501      37.915  16.369 193.229  1.00 10.09     0.192 C 
HETATM   17  O1  BES A 501      38.612  17.248 192.648  1.00  5.58    -0.647 OA
HETATM   18  O4  BES A 501      36.650  16.426 193.315  1.00  5.29    -0.647 OA
ENDBRANCH   8  16
ENDBRANCH   6   8
ENDBRANCH   3   4
BRANCH   3  19
HETATM   19  O5  BES A 501      36.521  14.792 197.963  1.00  8.27    -0.387 OA
HETATM   20  H15 BES A 501      37.219  15.067 198.698  1.00  8.22     0.210 HD
ENDBRANCH   3  19
ENDBRANCH   2   3
ENDBRANCH   1   2
BRANCH   1  21
HETATM   21  N12 BES A 501      34.716  14.837 195.414  1.00  8.22    -0.079 N 
HETATM   22  H14 BES A 501      35.117  15.696 195.909  1.00  8.22     0.274 HD
HETATM   23  H15 BES A 501      33.713  15.040 195.104  1.00  8.22     0.274 HD
HETATM   24  H1  BES A 501      35.315  14.608 194.558  1.00  8.22     0.274 HD
ENDBRANCH   1  21
TORSDOF 9
ENDMDL
MODEL 9
REMARK VINA RESULT:     0.001      4.653      6.726
REMARK INTER + INTRA:          -1.759
REMARK INTER:                   0.000
REMARK INTRA:                  -1.759
REMARK UNBOUND:                -1.761
REMARK  9 active torsions:
REMARK  status: ('A' for Active; 'I' for Inactive)
REMARK    1  A    between atoms: C70_1  and  C1_2 
REMARK    2  A    between atoms: C70_1  and  N12_20 
REMARK    3  A    between atoms: C1_2  and  C2_3 
REMARK    4  A    between atoms: C2_3  and  C3_4 
REMARK    5  A    between atoms: C2_3  and  O5_17 
REMARK       I    between atoms: C3_4  and  N1_6 
REMARK    6  A    between atoms: N1_6  and  C4_7 
REMARK    7  A    between atoms: C4_7  and  C13_8 
REMARK    8  A    between atoms: C4_7  and  C5_10 
REMARK    9  A    between atoms: C13_8  and  C7_9 
ROOT
HETATM    1  C70 BES A 501      34.088  13.076 198.614  1.00  6.08     0.232 C 
ENDROOT
BRANCH   1   2
HETATM    2  C1  BES A 501      35.354  12.458 198.587  1.00  6.71     0.068 C 
BRANCH   2   3
HETATM    3  C2  BES A 501      36.452  13.103 199.375  1.00  9.09     0.205 C 
BRANCH   3   4
HETATM    4  C3  BES A 501      37.475  13.656 198.425  1.00  8.29     0.227 C 
HETATM    5  O3  BES A 501      38.610  13.763 198.829  1.00  7.85    -0.277 OA
HETATM    6  N1  BES A 501      37.060  14.032 197.065  1.00  8.97    -0.246 NA
HETATM    7  H7  BES A 501      36.282  14.755 197.192  1.00  8.27     0.131 HD
BRANCH   6   8
HETATM    8  C4  BES A 501      37.954  14.590 196.050  1.00 10.85     0.169 C 
BRANCH   8   9
HETATM    9  C13 BES A 501      38.162  13.565 194.930  1.00  8.22     0.089 C 
BRANCH   9  10
HETATM   10  C7  BES A 501      37.050  12.500 194.959  1.00 11.21     0.029 A 
HETATM   11  C21 BES A 501      37.253  10.985 195.153  1.00  0.00     0.143 A 
HETATM   12  N22 BES A 501      35.869  10.312 195.113  1.00  0.00    -0.254 N 
HETATM   13  C23 BES A 501      34.811  11.409 194.893  1.00  0.00     0.207 A 
HETATM   14  N24 BES A 501      35.541  12.762 194.797  1.00  0.00    -0.353 N 
HETATM   15  H13 BES A 501      35.081  13.716 194.646  1.00  8.23     0.166 HD
ENDBRANCH   9  10
ENDBRANCH   8   9
BRANCH   8  16
HETATM   16  C5  BES A 501      37.282  15.793 195.474  1.00 10.09     0.192 C 
HETATM   17  O1  BES A 501      37.978  16.671 194.893  1.00  5.58    -0.647 OA
HETATM   18  O4  BES A 501      36.016  15.850 195.560  1.00  5.29    -0.647 OA
ENDBRANCH   8  16
ENDBRANCH   6   8
ENDBRANCH   3   4
BRANCH   3  19
HETATM   19  O5  BES A 501      35.887  14.215 200.208  1.00  8.27    -0.387 OA
HETATM   20  H15 BES A 501      36.585  14.491 200.943  1.00  8.22     0.210 HD
ENDBRANCH   3  19
ENDBRANCH   2   3
ENDBRANCH   1   2
BRANCH   1  21
HETATM   21  N12 BES A 501      34.082  14.260 197.659  1.00  8.22    -0.079 N 
HETATM   22  H14 BES A 501      34.483  15.119 198.154  1.00  8.22     0.274 HD
HETATM   23  H15 BES A 501      33.079  14.463 197.349  1.00  8.22     0.274 HD
HETATM   24  H1  BES A 501      34.681  14.031 196.803  1.00  8.22     0.274 HD
ENDBRANCH   1  21
TORSDOF 9
ENDMDL
