MODEL 1
REMARK VINA RESULT:     0.000      0.000      0.000
REMARK INTER + INTRA:           0.000
REMARK INTER:                   0.000
REMARK INTRA:                   0.000
REMARK UNBOUND:                 0.000
REMARK  Name = HEMCA.pdb
REMARK  4 active torsions:
REMARK  status: ('A' for Active; 'I' for Inactive)
REMARK    1  A    between atoms: C5_5  and  O19_19
REMARK    2  A    between atoms: C6_6  and  O18_18
REMARK    3  A    between atoms: C7_7  and  O20_20
REMARK    4  A    between atoms: C17_17  and  O21_21
REMARK                            x       y       z     vdW  Elec       q    Type
REMARK                         _______ _______ _______ _____ _____    ______ ____
ROOT
ATOM      1  C1  UNK H   1      35.537  15.792 200.293  0.00  0.00    +0.000 A 
ATOM      2  C2  UNK H   1      34.278  16.196 200.452  0.00  0.00    +0.000 A 
ATOM      3  C3  UNK H   1      36.074  14.708 201.139  0.00  0.00    +0.000 A 
ATOM      4  C4  UNK H   1      33.432  15.575 201.473  0.00  0.00    +0.000 A 
ATOM      5  C5  UNK H   1      35.304  14.158 202.075  0.00  0.00    +0.000 A 
ATOM      6  C6  UNK H   1      33.924  14.613 202.251  0.00  0.00    +0.000 A 
ATOM      7  C7  UNK H   1      37.889  16.017 199.393  0.00  0.00    +0.000 C 
ATOM      8  C8  UNK H   1      36.467  16.398 199.333  0.00  0.00    +0.000 C 
ATOM      9  C9  UNK H   1      38.115  14.556 199.777  0.00  0.00    +0.000 C 
ATOM     10  O10 UNK H   1      37.373  14.236 200.949  0.00  0.00    +0.000 OA
ATOM     11  C11 UNK H   1      38.513  16.525 198.054  0.00  0.00    +0.000 C 
ATOM     12  C12 UNK H   1      37.505  17.594 197.741  0.00  0.00    +0.000 C 
ATOM     13  C13 UNK H   1      36.290  17.376 198.445  0.00  0.00    +0.000 C 
ATOM     14  C14 UNK H   1      37.633  18.544 196.823  0.00  0.00    +0.000 C 
ATOM     15  C15 UNK H   1      36.471  19.409 196.567  0.00  0.00    +0.000 C 
ATOM     16  C16 UNK H   1      35.089  18.154 198.146  0.00  0.00    +0.000 C 
ATOM     17  C17 UNK H   1      35.180  19.138 197.249  0.00  0.00    +0.000 C 
ATOM     18  O22 UNK H   1      36.552  20.326 195.743  0.00  0.00    +0.000 OA
ENDROOT
BRANCH   6  19
ATOM     19  O18 UNK H   1      33.120  14.027 203.223  0.00  0.00    +0.000 OA
ATOM     20  H9  UNK H   1      33.628  14.024 204.143  0.00  0.00    +0.000 HD
ENDBRANCH   6  19
BRANCH   5  21
ATOM     21  O19 UNK H   1      35.805  13.132 202.868  0.00  0.00    +0.000 OA
ATOM     22  H10 UNK H   1      36.707  12.782 202.461  0.00  0.00    +0.000 HD
ENDBRANCH   5  21
BRANCH   7  23
ATOM     23  O20 UNK H   1      38.397  16.842 200.444  0.00  0.00    +0.000 OA
ATOM     24  H11 UNK H   1      39.121  17.496 200.057  0.00  0.00    +0.000 HD
ENDBRANCH   7  23
BRANCH  17  25
ATOM     25  O21 UNK H   1      34.062  19.909 196.952  0.00  0.00    +0.000 OA
ATOM     26  H12 UNK H   1      33.311  19.297 196.547  0.00  0.00    +0.000 HD
ENDBRANCH  17  25
TORSDOF 4
ENDMDL
MODEL 2
REMARK VINA RESULT:     0.000      2.324      2.714
REMARK INTER + INTRA:           0.000
REMARK INTER:                   0.000
REMARK INTRA:                   0.000
REMARK UNBOUND:                 0.000
REMARK  Name = HEMCA.pdb
REMARK  4 active torsions:
REMARK  status: ('A' for Active; 'I' for Inactive)
REMARK    1  A    between atoms: C5_5  and  O19_19
REMARK    2  A    between atoms: C6_6  and  O18_18
REMARK    3  A    between atoms: C7_7  and  O20_20
REMARK    4  A    between atoms: C17_17  and  O21_21
REMARK                            x       y       z     vdW  Elec       q    Type
REMARK                         _______ _______ _______ _____ _____    ______ ____
ROOT
ATOM      1  C1  UNK H   1      34.051  16.143 199.395  0.00  0.00    +0.000 A 
ATOM      2  C2  UNK H   1      33.058  16.839 198.842  0.00  0.00    +0.000 A 
ATOM      3  C3  UNK H   1      33.797  14.782 199.909  0.00  0.00    +0.000 A 
ATOM      4  C4  UNK H   1      31.716  16.261 198.757  0.00  0.00    +0.000 A 
ATOM      5  C5  UNK H   1      32.571  14.268 199.840  0.00  0.00    +0.000 A 
ATOM      6  C6  UNK H   1      31.483  15.042 199.240  0.00  0.00    +0.000 A 
ATOM      7  C7  UNK H   1      36.364  15.895 200.383  0.00  0.00    +0.000 C 
ATOM      8  C8  UNK H   1      35.410  16.668 199.570  0.00  0.00    +0.000 C 
ATOM      9  C9  UNK H   1      36.199  14.382 200.248  0.00  0.00    +0.000 C 
ATOM     10  O10 UNK H   1      34.836  14.019 200.441  0.00  0.00    +0.000 OA
ATOM     11  C11 UNK H   1      37.768  16.507 200.071  0.00  0.00    +0.000 C 
ATOM     12  C12 UNK H   1      37.312  17.861 199.608  0.00  0.00    +0.000 C 
ATOM     13  C13 UNK H   1      35.945  17.838 199.221  0.00  0.00    +0.000 C 
ATOM     14  C14 UNK H   1      38.084  18.925 199.424  0.00  0.00    +0.000 C 
ATOM     15  C15 UNK H   1      37.470  20.120 198.824  0.00  0.00    +0.000 C 
ATOM     16  C16 UNK H   1      35.330  18.973 198.536  0.00  0.00    +0.000 C 
ATOM     17  C17 UNK H   1      36.062  20.074 198.353  0.00  0.00    +0.000 C 
ATOM     18  O22 UNK H   1      38.142  21.144 198.661  0.00  0.00    +0.000 OA
ENDROOT
BRANCH   6  19
ATOM     19  O18 UNK H   1      30.206  14.497 199.161  0.00  0.00    +0.000 OA
ATOM     20  H9  UNK H   1      29.492  15.251 199.319  0.00  0.00    +0.000 HD
ENDBRANCH   6  19
BRANCH   5  21
ATOM     21  O19 UNK H   1      32.331  12.985 200.316  0.00  0.00    +0.000 OA
ATOM     22  H10 UNK H   1      31.643  12.501 199.688  0.00  0.00    +0.000 HD
ENDBRANCH   5  21
BRANCH   7  23
ATOM     23  O20 UNK H   1      36.021  16.267 201.720  0.00  0.00    +0.000 OA
ATOM     24  H11 UNK H   1      35.797  17.292 201.752  0.00  0.00    +0.000 HD
ENDBRANCH   7  23
BRANCH  17  25
ATOM     25  O21 UNK H   1      35.506  21.179 197.721  0.00  0.00    +0.000 OA
ATOM     26  H12 UNK H   1      35.850  22.058 198.183  0.00  0.00    +0.000 HD
ENDBRANCH  17  25
TORSDOF 4
ENDMDL
MODEL 3
REMARK VINA RESULT:     0.000      2.947      4.812
REMARK INTER + INTRA:           0.000
REMARK INTER:                   0.000
REMARK INTRA:                   0.000
REMARK UNBOUND:                 0.000
REMARK  Name = HEMCA.pdb
REMARK  4 active torsions:
REMARK  status: ('A' for Active; 'I' for Inactive)
REMARK    1  A    between atoms: C5_5  and  O19_19
REMARK    2  A    between atoms: C6_6  and  O18_18
REMARK    3  A    between atoms: C7_7  and  O20_20
REMARK    4  A    between atoms: C17_17  and  O21_21
REMARK                            x       y       z     vdW  Elec       q    Type
REMARK                         _______ _______ _______ _____ _____    ______ ____
ROOT
ATOM      1  C1  UNK H   1      35.112  15.927 198.357  0.00  0.00    +0.000 A 
ATOM      2  C2  UNK H   1      34.886  17.104 197.775  0.00  0.00    +0.000 A 
ATOM      3  C3  UNK H   1      34.467  14.709 197.827  0.00  0.00    +0.000 A 
ATOM      4  C4  UNK H   1      33.990  17.191 196.620  0.00  0.00    +0.000 A 
ATOM      5  C5  UNK H   1      33.643  14.798 196.785  0.00  0.00    +0.000 A 
ATOM      6  C6  UNK H   1      33.392  16.095 196.156  0.00  0.00    +0.000 A 
ATOM      7  C7  UNK H   1      35.954  14.455 200.231  0.00  0.00    +0.000 C 
ATOM      8  C8  UNK H   1      35.949  15.761 199.550  0.00  0.00    +0.000 C 
ATOM      9  C9  UNK H   1      35.832  13.267 199.277  0.00  0.00    +0.000 C 
ATOM     10  O10 UNK H   1      34.735  13.461 198.391  0.00  0.00    +0.000 OA
ATOM     11  C11 UNK H   1      37.183  14.492 201.195  0.00  0.00    +0.000 C 
ATOM     12  C12 UNK H   1      37.306  15.983 201.326  0.00  0.00    +0.000 C 
ATOM     13  C13 UNK H   1      36.652  16.649 200.253  0.00  0.00    +0.000 C 
ATOM     14  C14 UNK H   1      38.042  16.632 202.219  0.00  0.00    +0.000 C 
ATOM     15  C15 UNK H   1      38.145  18.094 202.091  0.00  0.00    +0.000 C 
ATOM     16  C16 UNK H   1      36.812  18.086 200.041  0.00  0.00    +0.000 C 
ATOM     17  C17 UNK H   1      37.523  18.782 200.930  0.00  0.00    +0.000 C 
ATOM     18  O22 UNK H   1      38.796  18.743 202.916  0.00  0.00    +0.000 OA
ENDROOT
BRANCH   6  19
ATOM     19  O18 UNK H   1      32.539  16.181 195.061  0.00  0.00    +0.000 OA
ATOM     20  H9  UNK H   1      33.026  16.682 194.276  0.00  0.00    +0.000 HD
ENDBRANCH   6  19
BRANCH   5  21
ATOM     21  O19 UNK H   1      33.041  13.652 196.279  0.00  0.00    +0.000 OA
ATOM     22  H10 UNK H   1      32.994  13.713 195.232  0.00  0.00    +0.000 HD
ENDBRANCH   5  21
BRANCH   7  23
ATOM     23  O20 UNK H   1      34.775  14.508 201.036  0.00  0.00    +0.000 OA
ATOM     24  H11 UNK H   1      33.943  14.229 200.458  0.00  0.00    +0.000 HD
ENDBRANCH   7  23
BRANCH  17  25
ATOM     25  O21 UNK H   1      37.682  20.153 200.770  0.00  0.00    +0.000 OA
ATOM     26  H12 UNK H   1      37.273  20.448 199.848  0.00  0.00    +0.000 HD
ENDBRANCH  17  25
TORSDOF 4
ENDMDL
MODEL 4
REMARK VINA RESULT:     0.000      5.715      8.419
REMARK INTER + INTRA:           0.000
REMARK INTER:                   0.000
REMARK INTRA:                   0.000
REMARK UNBOUND:                 0.000
REMARK  Name = HEMCA.pdb
REMARK  4 active torsions:
REMARK  status: ('A' for Active; 'I' for Inactive)
REMARK    1  A    between atoms: C5_5  and  O19_19
REMARK    2  A    between atoms: C6_6  and  O18_18
REMARK    3  A    between atoms: C7_7  and  O20_20
REMARK    4  A    between atoms: C17_17  and  O21_21
REMARK                            x       y       z     vdW  Elec       q    Type
REMARK                         _______ _______ _______ _____ _____    ______ ____
ROOT
ATOM      1  C1  UNK H   1      41.637  15.906 200.843  0.00  0.00    +0.000 A 
ATOM      2  C2  UNK H   1      41.616  17.023 201.569  0.00  0.00    +0.000 A 
ATOM      3  C3  UNK H   1      40.424  15.478 200.119  0.00  0.00    +0.000 A 
ATOM      4  C4  UNK H   1      40.390  17.817 201.659  0.00  0.00    +0.000 A 
ATOM      5  C5  UNK H   1      39.308  16.197 200.216  0.00  0.00    +0.000 A 
ATOM      6  C6  UNK H   1      39.289  17.418 201.023  0.00  0.00    +0.000 A 
ATOM      7  C7  UNK H   1      42.647  13.714 200.093  0.00  0.00    +0.000 C 
ATOM      8  C8  UNK H   1      42.805  15.024 200.745  0.00  0.00    +0.000 C 
ATOM      9  C9  UNK H   1      41.668  13.729 198.919  0.00  0.00    +0.000 C 
ATOM     10  O10 UNK H   1      40.443  14.341 199.311  0.00  0.00    +0.000 OA
ATOM     11  C11 UNK H   1      44.099  13.203 199.824  0.00  0.00    +0.000 C 
ATOM     12  C12 UNK H   1      44.806  14.012 200.873  0.00  0.00    +0.000 C 
ATOM     13  C13 UNK H   1      44.025  15.131 201.273  0.00  0.00    +0.000 C 
ATOM     14  C14 UNK H   1      46.054  13.833 201.290  0.00  0.00    +0.000 C 
ATOM     15  C15 UNK H   1      46.613  14.825 202.222  0.00  0.00    +0.000 C 
ATOM     16  C16 UNK H   1      44.583  16.183 202.120  0.00  0.00    +0.000 C 
ATOM     17  C17 UNK H   1      45.825  16.030 202.583  0.00  0.00    +0.000 C 
ATOM     18  O22 UNK H   1      47.760  14.683 202.659  0.00  0.00    +0.000 OA
ENDROOT
BRANCH   6  19
ATOM     19  O18 UNK H   1      38.125  18.173 201.113  0.00  0.00    +0.000 OA
ATOM     20  H9  UNK H   1      38.292  19.126 200.704  0.00  0.00    +0.000 HD
ENDBRANCH   6  19
BRANCH   5  21
ATOM     21  O19 UNK H   1      38.167  15.801 199.529  0.00  0.00    +0.000 OA
ATOM     22  H10 UNK H   1      37.989  14.781 199.702  0.00  0.00    +0.000 HD
ENDBRANCH   5  21
BRANCH   7  23
ATOM     23  O20 UNK H   1      42.091  12.904 201.131  0.00  0.00    +0.000 OA
ATOM     24  H11 UNK H   1      41.481  13.495 201.748  0.00  0.00    +0.000 HD
ENDBRANCH   7  23
BRANCH  17  25
ATOM     25  O21 UNK H   1      46.383  17.003 203.405  0.00  0.00    +0.000 OA
ATOM     26  H12 UNK H   1      46.116  17.955 203.051  0.00  0.00    +0.000 HD
ENDBRANCH  17  25
TORSDOF 4
ENDMDL
MODEL 5
REMARK VINA RESULT:     0.000      2.840      6.185
REMARK INTER + INTRA:           0.000
REMARK INTER:                   0.000
REMARK INTRA:                   0.000
REMARK UNBOUND:                 0.000
REMARK  Name = HEMCA.pdb
REMARK  4 active torsions:
REMARK  status: ('A' for Active; 'I' for Inactive)
REMARK    1  A    between atoms: C5_5  and  O19_19
REMARK    2  A    between atoms: C6_6  and  O18_18
REMARK    3  A    between atoms: C7_7  and  O20_20
REMARK    4  A    between atoms: C17_17  and  O21_21
REMARK                            x       y       z     vdW  Elec       q    Type
REMARK                         _______ _______ _______ _____ _____    ______ ____
ROOT
ATOM      1  C1  UNK H   1      37.412  17.219 197.579  0.00  0.00    +0.000 A 
ATOM      2  C2  UNK H   1      36.548  16.917 198.548  0.00  0.00    +0.000 A 
ATOM      3  C3  UNK H   1      37.268  18.487 196.837  0.00  0.00    +0.000 A 
ATOM      4  C4  UNK H   1      35.452  17.833 198.866  0.00  0.00    +0.000 A 
ATOM      5  C5  UNK H   1      36.261  19.310 197.122  0.00  0.00    +0.000 A 
ATOM      6  C6  UNK H   1      35.310  18.967 198.181  0.00  0.00    +0.000 A 
ATOM      7  C7  UNK H   1      39.258  16.673 195.943  0.00  0.00    +0.000 C 
ATOM      8  C8  UNK H   1      38.503  16.333 197.160  0.00  0.00    +0.000 C 
ATOM      9  C9  UNK H   1      39.445  18.175 195.738  0.00  0.00    +0.000 C 
ATOM     10  O10 UNK H   1      38.195  18.846 195.857  0.00  0.00    +0.000 OA
ATOM     11  C11 UNK H   1      40.538  15.778 195.983  0.00  0.00    +0.000 C 
ATOM     12  C12 UNK H   1      40.012  14.694 196.879  0.00  0.00    +0.000 C 
ATOM     13  C13 UNK H   1      38.887  15.143 197.622  0.00  0.00    +0.000 C 
ATOM     14  C14 UNK H   1      40.579  13.513 197.095  0.00  0.00    +0.000 C 
ATOM     15  C15 UNK H   1      39.983  12.645 198.123  0.00  0.00    +0.000 C 
ATOM     16  C16 UNK H   1      38.331  14.347 198.715  0.00  0.00    +0.000 C 
ATOM     17  C17 UNK H   1      38.854  13.141 198.949  0.00  0.00    +0.000 C 
ATOM     18  O22 UNK H   1      40.459  11.525 198.337  0.00  0.00    +0.000 OA
ENDROOT
BRANCH   6  19
ATOM     19  O18 UNK H   1      34.266  19.834 198.483  0.00  0.00    +0.000 OA
ATOM     20  H9  UNK H   1      34.369  20.175 199.471  0.00  0.00    +0.000 HD
ENDBRANCH   6  19
BRANCH   5  21
ATOM     21  O19 UNK H   1      36.128  20.508 196.430  0.00  0.00    +0.000 OA
ATOM     22  H10 UNK H   1      36.220  20.330 195.400  0.00  0.00    +0.000 HD
ENDBRANCH   5  21
BRANCH   7  23
ATOM     23  O20 UNK H   1      38.420  16.177 194.896  0.00  0.00    +0.000 OA
ATOM     24  H11 UNK H   1      37.421  16.428 195.099  0.00  0.00    +0.000 HD
ENDBRANCH   7  23
BRANCH  17  25
ATOM     25  O21 UNK H   1      38.339  12.350 199.969  0.00  0.00    +0.000 OA
ATOM     26  H12 UNK H   1      38.642  12.735 200.898  0.00  0.00    +0.000 HD
ENDBRANCH  17  25
TORSDOF 4
ENDMDL
MODEL 6
REMARK VINA RESULT:     0.000      2.722      5.852
REMARK INTER + INTRA:           0.000
REMARK INTER:                   0.000
REMARK INTRA:                   0.000
REMARK UNBOUND:                 0.000
REMARK  Name = HEMCA.pdb
REMARK  4 active torsions:
REMARK  status: ('A' for Active; 'I' for Inactive)
REMARK    1  A    between atoms: C5_5  and  O19_19
REMARK    2  A    between atoms: C6_6  and  O18_18
REMARK    3  A    between atoms: C7_7  and  O20_20
REMARK    4  A    between atoms: C17_17  and  O21_21
REMARK                            x       y       z     vdW  Elec       q    Type
REMARK                         _______ _______ _______ _____ _____    ______ ____
ROOT
ATOM      1  C1  UNK H   1      37.168  18.533 199.265  0.00  0.00    +0.000 A 
ATOM      2  C2  UNK H   1      36.305  18.231 200.234  0.00  0.00    +0.000 A 
ATOM      3  C3  UNK H   1      37.025  19.801 198.523  0.00  0.00    +0.000 A 
ATOM      4  C4  UNK H   1      35.209  19.147 200.552  0.00  0.00    +0.000 A 
ATOM      5  C5  UNK H   1      36.018  20.624 198.808  0.00  0.00    +0.000 A 
ATOM      6  C6  UNK H   1      35.067  20.281 199.867  0.00  0.00    +0.000 A 
ATOM      7  C7  UNK H   1      39.015  17.987 197.629  0.00  0.00    +0.000 C 
ATOM      8  C8  UNK H   1      38.259  17.647 198.846  0.00  0.00    +0.000 C 
ATOM      9  C9  UNK H   1      39.202  19.489 197.424  0.00  0.00    +0.000 C 
ATOM     10  O10 UNK H   1      37.951  20.159 197.543  0.00  0.00    +0.000 OA
ATOM     11  C11 UNK H   1      40.295  17.092 197.670  0.00  0.00    +0.000 C 
ATOM     12  C12 UNK H   1      39.769  16.007 198.566  0.00  0.00    +0.000 C 
ATOM     13  C13 UNK H   1      38.643  16.457 199.309  0.00  0.00    +0.000 C 
ATOM     14  C14 UNK H   1      40.335  14.827 198.781  0.00  0.00    +0.000 C 
ATOM     15  C15 UNK H   1      39.740  13.959 199.809  0.00  0.00    +0.000 C 
ATOM     16  C16 UNK H   1      38.088  15.661 200.401  0.00  0.00    +0.000 C 
ATOM     17  C17 UNK H   1      38.610  14.455 200.635  0.00  0.00    +0.000 C 
ATOM     18  O22 UNK H   1      40.216  12.839 200.024  0.00  0.00    +0.000 OA
ENDROOT
BRANCH   6  19
ATOM     19  O18 UNK H   1      34.023  21.148 200.169  0.00  0.00    +0.000 OA
ATOM     20  H9  UNK H   1      34.204  21.603 201.099  0.00  0.00    +0.000 HD
ENDBRANCH   6  19
BRANCH   5  21
ATOM     21  O19 UNK H   1      35.885  21.822 198.117  0.00  0.00    +0.000 OA
ATOM     22  H10 UNK H   1      35.055  22.349 198.485  0.00  0.00    +0.000 HD
ENDBRANCH   5  21
BRANCH   7  23
ATOM     23  O20 UNK H   1      38.177  17.491 196.583  0.00  0.00    +0.000 OA
ATOM     24  H11 UNK H   1      38.354  16.465 196.448  0.00  0.00    +0.000 HD
ENDBRANCH   7  23
BRANCH  17  25
ATOM     25  O21 UNK H   1      38.096  13.663 201.655  0.00  0.00    +0.000 OA
ATOM     26  H12 UNK H   1      38.399  14.049 202.584  0.00  0.00    +0.000 HD
ENDBRANCH  17  25
TORSDOF 4
ENDMDL
MODEL 7
REMARK VINA RESULT:     0.000      3.447      6.773
REMARK INTER + INTRA:           0.000
REMARK INTER:                   0.000
REMARK INTRA:                   0.000
REMARK UNBOUND:                 0.000
REMARK  Name = HEMCA.pdb
REMARK  4 active torsions:
REMARK  status: ('A' for Active; 'I' for Inactive)
REMARK    1  A    between atoms: C5_5  and  O19_19
REMARK    2  A    between atoms: C6_6  and  O18_18
REMARK    3  A    between atoms: C7_7  and  O20_20
REMARK    4  A    between atoms: C17_17  and  O21_21
REMARK                            x       y       z     vdW  Elec       q    Type
REMARK                         _______ _______ _______ _____ _____    ______ ____
ROOT
ATOM      1  C1  UNK H   1      37.345  19.646 196.945  0.00  0.00    +0.000 A 
ATOM      2  C2  UNK H   1      36.481  19.343 197.914  0.00  0.00    +0.000 A 
ATOM      3  C3  UNK H   1      37.201  20.914 196.203  0.00  0.00    +0.000 A 
ATOM      4  C4  UNK H   1      35.385  20.259 198.232  0.00  0.00    +0.000 A 
ATOM      5  C5  UNK H   1      36.194  21.736 196.488  0.00  0.00    +0.000 A 
ATOM      6  C6  UNK H   1      35.243  21.393 197.547  0.00  0.00    +0.000 A 
ATOM      7  C7  UNK H   1      39.191  19.099 195.309  0.00  0.00    +0.000 C 
ATOM      8  C8  UNK H   1      38.436  18.759 196.526  0.00  0.00    +0.000 C 
ATOM      9  C9  UNK H   1      39.378  20.602 195.104  0.00  0.00    +0.000 C 
ATOM     10  O10 UNK H   1      38.127  21.272 195.223  0.00  0.00    +0.000 OA
ATOM     11  C11 UNK H   1      40.471  18.204 195.349  0.00  0.00    +0.000 C 
ATOM     12  C12 UNK H   1      39.945  17.120 196.246  0.00  0.00    +0.000 C 
ATOM     13  C13 UNK H   1      38.819  17.569 196.989  0.00  0.00    +0.000 C 
ATOM     14  C14 UNK H   1      40.511  15.939 196.461  0.00  0.00    +0.000 C 
ATOM     15  C15 UNK H   1      39.916  15.071 197.489  0.00  0.00    +0.000 C 
ATOM     16  C16 UNK H   1      38.264  16.773 198.081  0.00  0.00    +0.000 C 
ATOM     17  C17 UNK H   1      38.786  15.568 198.315  0.00  0.00    +0.000 C 
ATOM     18  O22 UNK H   1      40.392  13.951 197.704  0.00  0.00    +0.000 OA
ENDROOT
BRANCH   6  19
ATOM     19  O18 UNK H   1      34.199  22.260 197.849  0.00  0.00    +0.000 OA
ATOM     20  H9  UNK H   1      34.530  23.253 197.757  0.00  0.00    +0.000 HD
ENDBRANCH   6  19
BRANCH   5  21
ATOM     21  O19 UNK H   1      36.061  22.934 195.797  0.00  0.00    +0.000 OA
ATOM     22  H10 UNK H   1      36.293  22.783 194.784  0.00  0.00    +0.000 HD
ENDBRANCH   5  21
BRANCH   7  23
ATOM     23  O20 UNK H   1      38.353  18.604 194.263  0.00  0.00    +0.000 OA
ATOM     24  H11 UNK H   1      37.472  18.211 194.676  0.00  0.00    +0.000 HD
ENDBRANCH   7  23
BRANCH  17  25
ATOM     25  O21 UNK H   1      38.272  14.776 199.335  0.00  0.00    +0.000 OA
ATOM     26  H12 UNK H   1      37.973  13.849 198.942  0.00  0.00    +0.000 HD
ENDBRANCH  17  25
TORSDOF 4
ENDMDL
MODEL 8
REMARK VINA RESULT:     0.000      4.007      6.717
REMARK INTER + INTRA:           0.000
REMARK INTER:                   0.000
REMARK INTRA:                   0.000
REMARK UNBOUND:                 0.000
REMARK  Name = HEMCA.pdb
REMARK  4 active torsions:
REMARK  status: ('A' for Active; 'I' for Inactive)
REMARK    1  A    between atoms: C5_5  and  O19_19
REMARK    2  A    between atoms: C6_6  and  O18_18
REMARK    3  A    between atoms: C7_7  and  O20_20
REMARK    4  A    between atoms: C17_17  and  O21_21
REMARK                            x       y       z     vdW  Elec       q    Type
REMARK                         _______ _______ _______ _____ _____    ______ ____
ROOT
ATOM      1  C1  UNK H   1      37.345  19.646 196.945  0.00  0.00    +0.000 A 
ATOM      2  C2  UNK H   1      36.968  18.780 197.886  0.00  0.00    +0.000 A 
ATOM      3  C3  UNK H   1      36.437  20.740 196.547  0.00  0.00    +0.000 A 
ATOM      4  C4  UNK H   1      35.651  18.906 198.514  0.00  0.00    +0.000 A 
ATOM      5  C5  UNK H   1      35.236  20.840 197.113  0.00  0.00    +0.000 A 
ATOM      6  C6  UNK H   1      34.824  19.881 198.139  0.00  0.00    +0.000 A 
ATOM      7  C7  UNK H   1      38.838  20.435 195.065  0.00  0.00    +0.000 C 
ATOM      8  C8  UNK H   1      38.621  19.558 196.228  0.00  0.00    +0.000 C 
ATOM      9  C9  UNK H   1      38.199  21.816 195.213  0.00  0.00    +0.000 C 
ATOM     10  O10 UNK H   1      36.836  21.686 195.603  0.00  0.00    +0.000 OA
ATOM     11  C11 UNK H   1      40.371  20.369 194.772  0.00  0.00    +0.000 C 
ATOM     12  C12 UNK H   1      40.655  19.046 195.424  0.00  0.00    +0.000 C 
ATOM     13  C13 UNK H   1      39.635  18.701 196.352  0.00  0.00    +0.000 C 
ATOM     14  C14 UNK H   1      41.767  18.333 195.296  0.00  0.00    +0.000 C 
ATOM     15  C15 UNK H   1      41.912  17.132 196.133  0.00  0.00    +0.000 C 
ATOM     16  C16 UNK H   1      39.789  17.571 197.266  0.00  0.00    +0.000 C 
ATOM     17  C17 UNK H   1      40.881  16.811 197.154  0.00  0.00    +0.000 C 
ATOM     18  O22 UNK H   1      42.917  16.422 196.027  0.00  0.00    +0.000 OA
ENDROOT
BRANCH   6  19
ATOM     19  O18 UNK H   1      33.573  19.996 198.734  0.00  0.00    +0.000 OA
ATOM     20  H9  UNK H   1      33.335  21.013 198.855  0.00  0.00    +0.000 HD
ENDBRANCH   6  19
BRANCH   5  21
ATOM     21  O19 UNK H   1      34.382  21.874 196.746  0.00  0.00    +0.000 OA
ATOM     22  H10 UNK H   1      34.446  22.031 195.710  0.00  0.00    +0.000 HD
ENDBRANCH   5  21
BRANCH   7  23
ATOM     23  O20 UNK H   1      38.168  19.742 194.011  0.00  0.00    +0.000 OA
ATOM     24  H11 UNK H   1      38.832  19.065 193.559  0.00  0.00    +0.000 HD
ENDBRANCH   7  23
BRANCH  17  25
ATOM     25  O21 UNK H   1      41.054  15.718 197.994  0.00  0.00    +0.000 OA
ATOM     26  H12 UNK H   1      41.188  14.851 197.418  0.00  0.00    +0.000 HD
ENDBRANCH  17  25
TORSDOF 4
ENDMDL
MODEL 9
REMARK VINA RESULT:     0.000      4.912      7.341
REMARK INTER + INTRA:           0.000
REMARK INTER:                   0.000
REMARK INTRA:                   0.000
REMARK UNBOUND:                 0.000
REMARK  Name = HEMCA.pdb
REMARK  4 active torsions:
REMARK  status: ('A' for Active; 'I' for Inactive)
REMARK    1  A    between atoms: C5_5  and  O19_19
REMARK    2  A    between atoms: C6_6  and  O18_18
REMARK    3  A    between atoms: C7_7  and  O20_20
REMARK    4  A    between atoms: C17_17  and  O21_21
REMARK                            x       y       z     vdW  Elec       q    Type
REMARK                         _______ _______ _______ _____ _____    ______ ____
ROOT
ATOM      1  C1  UNK H   1      39.111  20.526 199.024  0.00  0.00    +0.000 A 
ATOM      2  C2  UNK H   1      38.735  19.661 199.965  0.00  0.00    +0.000 A 
ATOM      3  C3  UNK H   1      38.203  21.620 198.626  0.00  0.00    +0.000 A 
ATOM      4  C4  UNK H   1      37.418  19.787 200.593  0.00  0.00    +0.000 A 
ATOM      5  C5  UNK H   1      37.003  21.721 199.191  0.00  0.00    +0.000 A 
ATOM      6  C6  UNK H   1      36.591  20.761 200.217  0.00  0.00    +0.000 A 
ATOM      7  C7  UNK H   1      40.604  21.316 197.144  0.00  0.00    +0.000 C 
ATOM      8  C8  UNK H   1      40.388  20.438 198.306  0.00  0.00    +0.000 C 
ATOM      9  C9  UNK H   1      39.966  22.696 197.292  0.00  0.00    +0.000 C 
ATOM     10  O10 UNK H   1      38.603  22.567 197.682  0.00  0.00    +0.000 OA
ATOM     11  C11 UNK H   1      42.138  21.249 196.851  0.00  0.00    +0.000 C 
ATOM     12  C12 UNK H   1      42.421  19.926 197.503  0.00  0.00    +0.000 C 
ATOM     13  C13 UNK H   1      41.402  19.581 198.431  0.00  0.00    +0.000 C 
ATOM     14  C14 UNK H   1      43.534  19.214 197.375  0.00  0.00    +0.000 C 
ATOM     15  C15 UNK H   1      43.678  18.013 198.212  0.00  0.00    +0.000 C 
ATOM     16  C16 UNK H   1      41.556  18.451 199.345  0.00  0.00    +0.000 C 
ATOM     17  C17 UNK H   1      42.648  17.692 199.232  0.00  0.00    +0.000 C 
ATOM     18  O22 UNK H   1      44.684  17.302 198.106  0.00  0.00    +0.000 OA
ENDROOT
BRANCH   6  19
ATOM     19  O18 UNK H   1      35.340  20.877 200.813  0.00  0.00    +0.000 OA
ATOM     20  H9  UNK H   1      34.648  20.282 200.293  0.00  0.00    +0.000 HD
ENDBRANCH   6  19
BRANCH   5  21
ATOM     21  O19 UNK H   1      36.149  22.754 198.825  0.00  0.00    +0.000 OA
ATOM     22  H10 UNK H   1      36.213  22.912 197.789  0.00  0.00    +0.000 HD
ENDBRANCH   5  21
BRANCH   7  23
ATOM     23  O20 UNK H   1      39.935  20.622 196.089  0.00  0.00    +0.000 OA
ATOM     24  H11 UNK H   1      40.637  20.304 195.377  0.00  0.00    +0.000 HD
ENDBRANCH   7  23
BRANCH  17  25
ATOM     25  O21 UNK H   1      42.821  16.599 200.073  0.00  0.00    +0.000 OA
ATOM     26  H12 UNK H   1      42.954  15.731 199.497  0.00  0.00    +0.000 HD
ENDBRANCH  17  25
TORSDOF 4
ENDMDL
