MODEL 1
REMARK VINA RESULT:    -6.371      0.000      0.000
REMARK INTER + INTRA:          -9.692
REMARK INTER:                  -9.164
REMARK INTRA:                  -0.528
REMARK UNBOUND:                -0.528
REMARK  Name = data/D/Ligand/Homocarnosine.pdb
REMARK  8 active torsions:
REMARK  status: ('A' for Active; 'I' for Inactive)
REMARK    1  A    between atoms: C70_1  and  C1_2
REMARK    2  A    between atoms: C70_1  and  N12_28
REMARK    3  A    between atoms: C1_2  and  C2_3
REMARK    4  A    between atoms: C2_3  and  C3_4
REMARK    5  A    between atoms: N1_6  and  C4_7
REMARK    6  A    between atoms: C4_7  and  C13_8
REMARK    7  A    between atoms: C4_7  and  C5_10
REMARK    8  A    between atoms: C13_8  and  C7_9
REMARK                            x       y       z     vdW  Elec       q    Type
REMARK                         _______ _______ _______ _____ _____    ______ ____
ROOT
ATOM      1  C3  BES A 501      25.141   1.622  27.651  0.00  0.00    +0.000 C 
ATOM      2  O3  BES A 501      25.447   2.417  28.512  0.00  0.00    +0.000 OA
ATOM      3  N1  BES A 501      26.119   0.968  26.770  0.00  0.00    +0.000 N 
ATOM      4  H7  BES A 501      25.817   1.214  25.773  0.00  0.00    +0.000 HD
ENDROOT
BRANCH   1   5
ATOM      5  C2  BES A 501      23.683   1.298  27.495  0.00  0.00    +0.000 C 
BRANCH   5   6
ATOM      6  C1  BES A 501      22.943   2.547  27.130  0.00  0.00    +0.000 C 
BRANCH   6   7
ATOM      7  C70 BES A 501      21.546   2.548  27.312  0.00  0.00    +0.000 C 
BRANCH   7   8
ATOM      8  N12 BES A 501      20.891   1.716  26.220  0.00  0.00    +0.000 N 
ATOM      9  H14 BES A 501      21.538   1.673  25.369  0.00  0.00    +0.000 HD
ATOM     10  H15 BES A 501      19.961   2.163  25.939  0.00  0.00    +0.000 HD
ATOM     11  H6  BES A 501      20.716   0.725  26.583  0.00  0.00    +0.000 HD
ENDBRANCH   7   8
ENDBRANCH   6   7
ENDBRANCH   5   6
ENDBRANCH   1   5
BRANCH   3  12
ATOM     12  C4  BES A 501      27.562   1.204  26.812  0.00  0.00    +0.000 C 
BRANCH  12  13
ATOM     13  C5  BES A 501      28.025   1.404  25.406  0.00  0.00    +0.000 C 
ATOM     14  O1  BES A 501      29.021   2.146  25.182  0.00  0.00    +0.000 OA
ATOM     15  O4  BES A 501      27.409   0.770  24.494  0.00  0.00    +0.000 OA
ENDBRANCH  12  13
BRANCH  12  16
ATOM     16  C13 BES A 501      28.267  -0.029  27.386  0.00  0.00    +0.000 C 
BRANCH  16  17
ATOM     17  C7  BES A 501      29.602   0.370  28.044  0.00  0.00    +0.000 A 
ATOM     18  C21 BES A 501      30.618  -0.594  28.686  0.00  0.00    +0.000 A 
ATOM     19  N22 BES A 501      31.798   0.242  29.214  0.00  0.00    +0.000 NA
ATOM     20  C23 BES A 501      31.511   1.723  28.901  0.00  0.00    +0.000 A 
ATOM     21  N24 BES A 501      30.153   1.801  28.177  0.00  0.00    +0.000 N 
ATOM     22  H13 BES A 501      29.677   2.693  27.828  0.00  0.00    +0.000 HD
ENDBRANCH  16  17
ENDBRANCH  12  16
ENDBRANCH   3  12
TORSDOF 8
ENDMDL
MODEL 2
REMARK VINA RESULT:    -6.243      1.124      1.355
REMARK INTER + INTRA:          -9.507
REMARK INTER:                  -8.788
REMARK INTRA:                  -0.719
REMARK UNBOUND:                -0.528
REMARK  Name = data/D/Ligand/Homocarnosine.pdb
REMARK  8 active torsions:
REMARK  status: ('A' for Active; 'I' for Inactive)
REMARK    1  A    between atoms: C70_1  and  C1_2
REMARK    2  A    between atoms: C70_1  and  N12_28
REMARK    3  A    between atoms: C1_2  and  C2_3
REMARK    4  A    between atoms: C2_3  and  C3_4
REMARK    5  A    between atoms: N1_6  and  C4_7
REMARK    6  A    between atoms: C4_7  and  C13_8
REMARK    7  A    between atoms: C4_7  and  C5_10
REMARK    8  A    between atoms: C13_8  and  C7_9
REMARK                            x       y       z     vdW  Elec       q    Type
REMARK                         _______ _______ _______ _____ _____    ______ ____
ROOT
ATOM      1  C3  BES A 501      25.385   1.495  27.578  0.00  0.00    +0.000 C 
ATOM      2  O3  BES A 501      25.718   2.144  28.543  0.00  0.00    +0.000 OA
ATOM      3  N1  BES A 501      26.337   0.946  26.602  0.00  0.00    +0.000 N 
ATOM      4  H7  BES A 501      26.040   1.346  25.654  0.00  0.00    +0.000 HD
ENDROOT
BRANCH   1   5
ATOM      5  C2  BES A 501      23.916   1.243  27.388  0.00  0.00    +0.000 C 
BRANCH   5   6
ATOM      6  C1  BES A 501      23.182   2.543  27.490  0.00  0.00    +0.000 C 
BRANCH   6   7
ATOM      7  C70 BES A 501      22.181   2.646  28.477  0.00  0.00    +0.000 C 
BRANCH   7   8
ATOM      8  N12 BES A 501      22.797   2.422  29.849  0.00  0.00    +0.000 N 
ATOM      9  H14 BES A 501      22.294   3.032  30.569  0.00  0.00    +0.000 HD
ATOM     10  H15 BES A 501      23.833   2.683  29.823  0.00  0.00    +0.000 HD
ATOM     11  H6  BES A 501      22.695   1.392  30.122  0.00  0.00    +0.000 HD
ENDBRANCH   7   8
ENDBRANCH   6   7
ENDBRANCH   5   6
ENDBRANCH   1   5
BRANCH   3  12
ATOM     12  C4  BES A 501      27.788   1.128  26.666  0.00  0.00    +0.000 C 
BRANCH  12  13
ATOM     13  C5  BES A 501      28.275   1.341  25.271  0.00  0.00    +0.000 C 
ATOM     14  O1  BES A 501      27.818   0.622  24.339  0.00  0.00    +0.000 OA
ATOM     15  O4  BES A 501      29.106   2.283  25.082  0.00  0.00    +0.000 OA
ENDBRANCH  12  13
BRANCH  12  16
ATOM     16  C13 BES A 501      28.440  -0.142  27.222  0.00  0.00    +0.000 C 
BRANCH  16  17
ATOM     17  C7  BES A 501      29.805   0.185  27.856  0.00  0.00    +0.000 A 
ATOM     18  C21 BES A 501      30.583  -0.709  28.840  0.00  0.00    +0.000 A 
ATOM     19  N22 BES A 501      31.890   0.016  29.209  0.00  0.00    +0.000 NA
ATOM     20  C23 BES A 501      31.920   1.359  28.456  0.00  0.00    +0.000 A 
ATOM     21  N24 BES A 501      30.631   1.463  27.619  0.00  0.00    +0.000 N 
ATOM     22  H13 BES A 501      30.357   2.280  26.984  0.00  0.00    +0.000 HD
ENDBRANCH  16  17
ENDBRANCH  12  16
ENDBRANCH   3  12
TORSDOF 8
ENDMDL
MODEL 3
REMARK VINA RESULT:    -6.238      1.497      6.911
REMARK INTER + INTRA:          -9.501
REMARK INTER:                  -8.834
REMARK INTRA:                  -0.667
REMARK UNBOUND:                -0.528
REMARK  Name = data/D/Ligand/Homocarnosine.pdb
REMARK  8 active torsions:
REMARK  status: ('A' for Active; 'I' for Inactive)
REMARK    1  A    between atoms: C70_1  and  C1_2
REMARK    2  A    between atoms: C70_1  and  N12_28
REMARK    3  A    between atoms: C1_2  and  C2_3
REMARK    4  A    between atoms: C2_3  and  C3_4
REMARK    5  A    between atoms: N1_6  and  C4_7
REMARK    6  A    between atoms: C4_7  and  C13_8
REMARK    7  A    between atoms: C4_7  and  C5_10
REMARK    8  A    between atoms: C13_8  and  C7_9
REMARK                            x       y       z     vdW  Elec       q    Type
REMARK                         _______ _______ _______ _____ _____    ______ ____
ROOT
ATOM      1  C3  BES A 501      28.072   0.823  26.856  0.00  0.00    +0.000 C 
ATOM      2  O3  BES A 501      28.184   1.986  26.540  0.00  0.00    +0.000 OA
ATOM      3  N1  BES A 501      26.932   0.299  27.623  0.00  0.00    +0.000 N 
ATOM      4  H7  BES A 501      27.356  -0.154  28.495  0.00  0.00    +0.000 HD
ENDROOT
BRANCH   1   5
ATOM      5  C2  BES A 501      29.161  -0.118  26.429  0.00  0.00    +0.000 C 
BRANCH   5   6
ATOM      6  C1  BES A 501      29.773  -0.739  27.646  0.00  0.00    +0.000 C 
BRANCH   6   7
ATOM      7  C70 BES A 501      30.609   0.073  28.437  0.00  0.00    +0.000 C 
BRANCH   7   8
ATOM      8  N12 BES A 501      30.058   0.141  29.853  0.00  0.00    +0.000 N 
ATOM      9  H14 BES A 501      30.158   1.138  30.227  0.00  0.00    +0.000 HD
ATOM     10  H15 BES A 501      30.604  -0.532  30.481  0.00  0.00    +0.000 HD
ATOM     11  H6  BES A 501      29.025  -0.136  29.848  0.00  0.00    +0.000 HD
ENDBRANCH   7   8
ENDBRANCH   6   7
ENDBRANCH   5   6
ENDBRANCH   1   5
BRANCH   3  12
ATOM     12  C4  BES A 501      25.814   1.109  28.106  0.00  0.00    +0.000 C 
BRANCH  12  13
ATOM     13  C5  BES A 501      26.096   1.457  29.531  0.00  0.00    +0.000 C 
ATOM     14  O1  BES A 501      25.148   1.831  30.276  0.00  0.00    +0.000 OA
ATOM     15  O4  BES A 501      27.289   1.312  29.941  0.00  0.00    +0.000 OA
ENDBRANCH  12  13
BRANCH  12  16
ATOM     16  C13 BES A 501      24.523   0.288  28.051  0.00  0.00    +0.000 C 
BRANCH  16  17
ATOM     17  C7  BES A 501      23.350   1.157  27.557  0.00  0.00    +0.000 A 
ATOM     18  C21 BES A 501      23.394   2.675  27.302  0.00  0.00    +0.000 A 
ATOM     19  N22 BES A 501      22.000   3.116  26.819  0.00  0.00    +0.000 NA
ATOM     20  C23 BES A 501      21.094   1.870  26.776  0.00  0.00    +0.000 A 
ATOM     21  N24 BES A 501      21.930   0.659  27.233  0.00  0.00    +0.000 N 
ATOM     22  H13 BES A 501      21.584  -0.350  27.310  0.00  0.00    +0.000 HD
ENDBRANCH  16  17
ENDBRANCH  12  16
ENDBRANCH   3  12
TORSDOF 8
ENDMDL
MODEL 4
REMARK VINA RESULT:    -6.030      2.494      3.139
REMARK INTER + INTRA:          -9.201
REMARK INTER:                  -8.532
REMARK INTRA:                  -0.669
REMARK UNBOUND:                -0.528
REMARK  Name = data/D/Ligand/Homocarnosine.pdb
REMARK  8 active torsions:
REMARK  status: ('A' for Active; 'I' for Inactive)
REMARK    1  A    between atoms: C70_1  and  C1_2
REMARK    2  A    between atoms: C70_1  and  N12_28
REMARK    3  A    between atoms: C1_2  and  C2_3
REMARK    4  A    between atoms: C2_3  and  C3_4
REMARK    5  A    between atoms: N1_6  and  C4_7
REMARK    6  A    between atoms: C4_7  and  C13_8
REMARK    7  A    between atoms: C4_7  and  C5_10
REMARK    8  A    between atoms: C13_8  and  C7_9
REMARK                            x       y       z     vdW  Elec       q    Type
REMARK                         _______ _______ _______ _____ _____    ______ ____
ROOT
ATOM      1  C3  BES A 501      26.824   0.950  28.519  0.00  0.00    +0.000 C 
ATOM      2  O3  BES A 501      26.995   1.311  29.662  0.00  0.00    +0.000 OA
ATOM      3  N1  BES A 501      27.922   0.693  27.577  0.00  0.00    +0.000 N 
ATOM      4  H7  BES A 501      27.741   1.336  26.741  0.00  0.00    +0.000 HD
ENDROOT
BRANCH   1   5
ATOM      5  C2  BES A 501      25.407   0.756  28.061  0.00  0.00    +0.000 C 
BRANCH   5   6
ATOM      6  C1  BES A 501      24.654   2.035  28.252  0.00  0.00    +0.000 C 
BRANCH   6   7
ATOM      7  C70 BES A 501      23.588   2.027  29.174  0.00  0.00    +0.000 C 
BRANCH   7   8
ATOM      8  N12 BES A 501      24.139   2.146  30.587  0.00  0.00    +0.000 N 
ATOM      9  H14 BES A 501      23.336   2.338  31.268  0.00  0.00    +0.000 HD
ATOM     10  H15 BES A 501      24.842   2.950  30.630  0.00  0.00    +0.000 HD
ATOM     11  H6  BES A 501      24.624   1.232  30.858  0.00  0.00    +0.000 HD
ENDBRANCH   7   8
ENDBRANCH   6   7
ENDBRANCH   5   6
ENDBRANCH   1   5
BRANCH   3  12
ATOM     12  C4  BES A 501      29.342   0.854  27.894  0.00  0.00    +0.000 C 
BRANCH  12  13
ATOM     13  C5  BES A 501      29.743   2.228  27.468  0.00  0.00    +0.000 C 
ATOM     14  O1  BES A 501      29.006   2.867  26.666  0.00  0.00    +0.000 OA
ATOM     15  O4  BES A 501      30.801   2.710  27.978  0.00  0.00    +0.000 OA
ENDBRANCH  12  13
BRANCH  12  16
ATOM     16  C13 BES A 501      30.164  -0.163  27.098  0.00  0.00    +0.000 C 
BRANCH  16  17
ATOM     17  C7  BES A 501      30.532  -1.371  27.981  0.00  0.00    +0.000 A 
ATOM     18  C21 BES A 501      31.907  -2.062  28.042  0.00  0.00    +0.000 A 
ATOM     19  N22 BES A 501      31.814  -3.217  29.057  0.00  0.00    +0.000 NA
ATOM     20  C23 BES A 501      30.382  -3.239  29.623  0.00  0.00    +0.000 A 
ATOM     21  N24 BES A 501      29.589  -2.098  28.958  0.00  0.00    +0.000 N 
ATOM     22  H13 BES A 501      28.565  -1.853  29.142  0.00  0.00    +0.000 HD
ENDBRANCH  16  17
ENDBRANCH  12  16
ENDBRANCH   3  12
TORSDOF 8
ENDMDL
MODEL 5
REMARK VINA RESULT:    -5.950      2.199      6.515
REMARK INTER + INTRA:          -9.086
REMARK INTER:                  -8.554
REMARK INTRA:                  -0.531
REMARK UNBOUND:                -0.528
REMARK  Name = data/D/Ligand/Homocarnosine.pdb
REMARK  8 active torsions:
REMARK  status: ('A' for Active; 'I' for Inactive)
REMARK    1  A    between atoms: C70_1  and  C1_2
REMARK    2  A    between atoms: C70_1  and  N12_28
REMARK    3  A    between atoms: C1_2  and  C2_3
REMARK    4  A    between atoms: C2_3  and  C3_4
REMARK    5  A    between atoms: N1_6  and  C4_7
REMARK    6  A    between atoms: C4_7  and  C13_8
REMARK    7  A    between atoms: C4_7  and  C5_10
REMARK    8  A    between atoms: C13_8  and  C7_9
REMARK                            x       y       z     vdW  Elec       q    Type
REMARK                         _______ _______ _______ _____ _____    ______ ____
ROOT
ATOM      1  C3  BES A 501      30.377  -0.718  26.204  0.00  0.00    +0.000 C 
ATOM      2  O3  BES A 501      29.962  -1.286  25.218  0.00  0.00    +0.000 OA
ATOM      3  N1  BES A 501      29.569   0.215  27.001  0.00  0.00    +0.000 N 
ATOM      4  H7  BES A 501      30.115   1.136  27.007  0.00  0.00    +0.000 HD
ENDROOT
BRANCH   1   5
ATOM      5  C2  BES A 501      31.792  -1.001  26.619  0.00  0.00    +0.000 C 
BRANCH   5   6
ATOM      6  C1  BES A 501      31.844  -1.134  28.109  0.00  0.00    +0.000 C 
BRANCH   6   7
ATOM      7  C70 BES A 501      31.629  -2.417  28.652  0.00  0.00    +0.000 C 
BRANCH   7   8
ATOM      8  N12 BES A 501      30.371  -2.401  29.508  0.00  0.00    +0.000 N 
ATOM      9  H14 BES A 501      29.521  -2.617  28.896  0.00  0.00    +0.000 HD
ATOM     10  H15 BES A 501      30.255  -1.436  29.953  0.00  0.00    +0.000 HD
ATOM     11  H6  BES A 501      30.454  -3.141  30.276  0.00  0.00    +0.000 HD
ENDBRANCH   7   8
ENDBRANCH   6   7
ENDBRANCH   5   6
ENDBRANCH   1   5
BRANCH   3  12
ATOM     12  C4  BES A 501      28.185   0.583  26.698  0.00  0.00    +0.000 C 
BRANCH  12  13
ATOM     13  C5  BES A 501      28.189   1.301  25.389  0.00  0.00    +0.000 C 
ATOM     14  O1  BES A 501      27.354   0.972  24.501  0.00  0.00    +0.000 OA
ATOM     15  O4  BES A 501      29.016   2.254  25.250  0.00  0.00    +0.000 OA
ENDBRANCH  12  13
BRANCH  12  16
ATOM     16  C13 BES A 501      27.660   1.536  27.776  0.00  0.00    +0.000 C 
BRANCH  16  17
ATOM     17  C7  BES A 501      26.136   1.380  27.939  0.00  0.00    +0.000 A 
ATOM     18  C21 BES A 501      25.283   1.965  29.080  0.00  0.00    +0.000 A 
ATOM     19  N22 BES A 501      23.818   1.559  28.835  0.00  0.00    +0.000 NA
ATOM     20  C23 BES A 501      23.765   0.721  27.544  0.00  0.00    +0.000 A 
ATOM     21  N24 BES A 501      25.199   0.611  26.989  0.00  0.00    +0.000 N 
ATOM     22  H13 BES A 501      25.491   0.091  26.101  0.00  0.00    +0.000 HD
ENDBRANCH  16  17
ENDBRANCH  12  16
ENDBRANCH   3  12
TORSDOF 8
ENDMDL
MODEL 6
REMARK VINA RESULT:    -5.883      2.565      3.160
REMARK INTER + INTRA:          -8.991
REMARK INTER:                  -8.614
REMARK INTRA:                  -0.376
REMARK UNBOUND:                -0.528
REMARK  Name = data/D/Ligand/Homocarnosine.pdb
REMARK  8 active torsions:
REMARK  status: ('A' for Active; 'I' for Inactive)
REMARK    1  A    between atoms: C70_1  and  C1_2
REMARK    2  A    between atoms: C70_1  and  N12_28
REMARK    3  A    between atoms: C1_2  and  C2_3
REMARK    4  A    between atoms: C2_3  and  C3_4
REMARK    5  A    between atoms: N1_6  and  C4_7
REMARK    6  A    between atoms: C4_7  and  C13_8
REMARK    7  A    between atoms: C4_7  and  C5_10
REMARK    8  A    between atoms: C13_8  and  C7_9
REMARK                            x       y       z     vdW  Elec       q    Type
REMARK                         _______ _______ _______ _____ _____    ______ ____
ROOT
ATOM      1  C3  BES A 501      26.070   1.309  28.474  0.00  0.00    +0.000 C 
ATOM      2  O3  BES A 501      26.099   1.385  29.682  0.00  0.00    +0.000 OA
ATOM      3  N1  BES A 501      27.256   1.031  27.651  0.00  0.00    +0.000 N 
ATOM      4  H7  BES A 501      27.334   1.855  26.972  0.00  0.00    +0.000 HD
ENDROOT
BRANCH   1   5
ATOM      5  C2  BES A 501      24.742   1.507  27.801  0.00  0.00    +0.000 C 
BRANCH   5   6
ATOM      6  C1  BES A 501      24.092   2.734  28.359  0.00  0.00    +0.000 C 
BRANCH   6   7
ATOM      7  C70 BES A 501      22.973   2.550  29.196  0.00  0.00    +0.000 C 
BRANCH   7   8
ATOM      8  N12 BES A 501      23.417   2.582  30.651  0.00  0.00    +0.000 N 
ATOM      9  H14 BES A 501      23.876   3.524  30.863  0.00  0.00    +0.000 HD
ATOM     10  H15 BES A 501      24.119   1.795  30.827  0.00  0.00    +0.000 HD
ATOM     11  H6  BES A 501      22.566   2.449  31.286  0.00  0.00    +0.000 HD
ENDBRANCH   7   8
ENDBRANCH   6   7
ENDBRANCH   5   6
ENDBRANCH   1   5
BRANCH   3  12
ATOM     12  C4  BES A 501      28.605   0.830  28.181  0.00  0.00    +0.000 C 
BRANCH  12  13
ATOM     13  C5  BES A 501      29.430   2.003  27.763  0.00  0.00    +0.000 C 
ATOM     14  O1  BES A 501      28.943   2.848  26.962  0.00  0.00    +0.000 OA
ATOM     15  O4  BES A 501      30.584   2.116  28.280  0.00  0.00    +0.000 OA
ENDBRANCH  12  13
BRANCH  12  16
ATOM     16  C13 BES A 501      29.213  -0.436  27.570  0.00  0.00    +0.000 C 
BRANCH  16  17
ATOM     17  C7  BES A 501      29.843  -0.126  26.199  0.00  0.00    +0.000 A 
ATOM     18  C21 BES A 501      29.087  -0.008  24.862  0.00  0.00    +0.000 A 
ATOM     19  N22 BES A 501      30.115   0.312  23.761  0.00  0.00    +0.000 NA
ATOM     20  C23 BES A 501      31.507   0.391  24.418  0.00  0.00    +0.000 A 
ATOM     21  N24 BES A 501      31.338   0.120  25.925  0.00  0.00    +0.000 N 
ATOM     22  H13 BES A 501      32.121   0.106  26.653  0.00  0.00    +0.000 HD
ENDBRANCH  16  17
ENDBRANCH  12  16
ENDBRANCH   3  12
TORSDOF 8
ENDMDL
MODEL 7
REMARK VINA RESULT:    -5.803      2.979      6.534
REMARK INTER + INTRA:          -8.875
REMARK INTER:                  -8.102
REMARK INTRA:                  -0.773
REMARK UNBOUND:                -0.528
REMARK  Name = data/D/Ligand/Homocarnosine.pdb
REMARK  8 active torsions:
REMARK  status: ('A' for Active; 'I' for Inactive)
REMARK    1  A    between atoms: C70_1  and  C1_2
REMARK    2  A    between atoms: C70_1  and  N12_28
REMARK    3  A    between atoms: C1_2  and  C2_3
REMARK    4  A    between atoms: C2_3  and  C3_4
REMARK    5  A    between atoms: N1_6  and  C4_7
REMARK    6  A    between atoms: C4_7  and  C13_8
REMARK    7  A    between atoms: C4_7  and  C5_10
REMARK    8  A    between atoms: C13_8  and  C7_9
REMARK                            x       y       z     vdW  Elec       q    Type
REMARK                         _______ _______ _______ _____ _____    ______ ____
ROOT
ATOM      1  C3  BES A 501      30.581  -1.425  27.941  0.00  0.00    +0.000 C 
ATOM      2  O3  BES A 501      29.486  -1.660  28.401  0.00  0.00    +0.000 OA
ATOM      3  N1  BES A 501      30.790  -0.783  26.636  0.00  0.00    +0.000 N 
ATOM      4  H7  BES A 501      31.390  -1.467  26.072  0.00  0.00    +0.000 HD
ENDROOT
BRANCH   1   5
ATOM      5  C2  BES A 501      31.775  -1.812  28.766  0.00  0.00    +0.000 C 
BRANCH   5   6
ATOM      6  C1  BES A 501      31.876  -3.304  28.805  0.00  0.00    +0.000 C 
BRANCH   6   7
ATOM      7  C70 BES A 501      31.486  -3.949  29.996  0.00  0.00    +0.000 C 
BRANCH   7   8
ATOM      8  N12 BES A 501      30.009  -4.304  29.919  0.00  0.00    +0.000 N 
ATOM      9  H14 BES A 501      29.523  -4.007  30.825  0.00  0.00    +0.000 HD
ATOM     10  H15 BES A 501      29.902  -5.360  29.788  0.00  0.00    +0.000 HD
ATOM     11  H6  BES A 501      29.562  -3.795  29.092  0.00  0.00    +0.000 HD
ENDBRANCH   7   8
ENDBRANCH   6   7
ENDBRANCH   5   6
ENDBRANCH   1   5
BRANCH   3  12
ATOM     12  C4  BES A 501      29.715  -0.368  25.734  0.00  0.00    +0.000 C 
BRANCH  12  13
ATOM     13  C5  BES A 501      30.249  -0.434  24.340  0.00  0.00    +0.000 C 
ATOM     14  O1  BES A 501      30.151   0.577  23.591  0.00  0.00    +0.000 OA
ATOM     15  O4  BES A 501      30.825  -1.509  23.988  0.00  0.00    +0.000 OA
ENDBRANCH  12  13
BRANCH  12  16
ATOM     16  C13 BES A 501      29.322   1.081  26.036  0.00  0.00    +0.000 C 
BRANCH  16  17
ATOM     17  C7  BES A 501      27.948   1.134  26.731  0.00  0.00    +0.000 A 
ATOM     18  C21 BES A 501      27.702   1.375  28.232  0.00  0.00    +0.000 A 
ATOM     19  N22 BES A 501      26.182   1.346  28.475  0.00  0.00    +0.000 NA
ATOM     20  C23 BES A 501      25.488   1.087  27.125  0.00  0.00    +0.000 A 
ATOM     21  N24 BES A 501      26.580   0.956  26.046  0.00  0.00    +0.000 N 
ATOM     22  H13 BES A 501      26.417   0.774  25.005  0.00  0.00    +0.000 HD
ENDBRANCH  16  17
ENDBRANCH  12  16
ENDBRANCH   3  12
TORSDOF 8
ENDMDL
MODEL 8
REMARK VINA RESULT:    -5.793      2.381      6.476
REMARK INTER + INTRA:          -8.861
REMARK INTER:                  -8.232
REMARK INTRA:                  -0.629
REMARK UNBOUND:                -0.528
REMARK  Name = data/D/Ligand/Homocarnosine.pdb
REMARK  8 active torsions:
REMARK  status: ('A' for Active; 'I' for Inactive)
REMARK    1  A    between atoms: C70_1  and  C1_2
REMARK    2  A    between atoms: C70_1  and  N12_28
REMARK    3  A    between atoms: C1_2  and  C2_3
REMARK    4  A    between atoms: C2_3  and  C3_4
REMARK    5  A    between atoms: N1_6  and  C4_7
REMARK    6  A    between atoms: C4_7  and  C13_8
REMARK    7  A    between atoms: C4_7  and  C5_10
REMARK    8  A    between atoms: C13_8  and  C7_9
REMARK                            x       y       z     vdW  Elec       q    Type
REMARK                         _______ _______ _______ _____ _____    ______ ____
ROOT
ATOM      1  C3  BES A 501      28.859   0.911  25.462  0.00  0.00    +0.000 C 
ATOM      2  O3  BES A 501      28.889   2.108  25.283  0.00  0.00    +0.000 OA
ATOM      3  N1  BES A 501      28.155   0.278  26.585  0.00  0.00    +0.000 N 
ATOM      4  H7  BES A 501      28.896  -0.294  27.104  0.00  0.00    +0.000 HD
ENDROOT
BRANCH   1   5
ATOM      5  C2  BES A 501      29.582   0.046  24.469  0.00  0.00    +0.000 C 
BRANCH   5   6
ATOM      6  C1  BES A 501      31.053   0.300  24.582  0.00  0.00    +0.000 C 
BRANCH   6   7
ATOM      7  C70 BES A 501      31.655   0.067  25.835  0.00  0.00    +0.000 C 
BRANCH   7   8
ATOM      8  N12 BES A 501      31.873   1.394  26.547  0.00  0.00    +0.000 N 
ATOM      9  H14 BES A 501      32.205   2.126  25.842  0.00  0.00    +0.000 HD
ATOM     10  H15 BES A 501      32.612   1.272  27.310  0.00  0.00    +0.000 HD
ATOM     11  H6  BES A 501      30.953   1.716  26.989  0.00  0.00    +0.000 HD
ENDBRANCH   7   8
ENDBRANCH   6   7
ENDBRANCH   5   6
ENDBRANCH   1   5
BRANCH   3  12
ATOM     12  C4  BES A 501      27.424   1.006  27.623  0.00  0.00    +0.000 C 
BRANCH  12  13
ATOM     13  C5  BES A 501      28.336   1.148  28.797  0.00  0.00    +0.000 C 
ATOM     14  O1  BES A 501      29.585   1.077  28.623  0.00  0.00    +0.000 OA
ATOM     15  O4  BES A 501      27.802   1.384  29.924  0.00  0.00    +0.000 OA
ENDBRANCH  12  13
BRANCH  12  16
ATOM     16  C13 BES A 501      26.199   0.194  28.054  0.00  0.00    +0.000 C 
BRANCH  16  17
ATOM     17  C7  BES A 501      25.053   1.131  28.481  0.00  0.00    +0.000 A 
ATOM     18  C21 BES A 501      23.997   1.753  27.549  0.00  0.00    +0.000 A 
ATOM     19  N22 BES A 501      23.054   2.617  28.407  0.00  0.00    +0.000 NA
ATOM     20  C23 BES A 501      23.527   2.529  29.870  0.00  0.00    +0.000 A 
ATOM     21  N24 BES A 501      24.763   1.610  29.916  0.00  0.00    +0.000 N 
ATOM     22  H13 BES A 501      25.322   1.351  30.791  0.00  0.00    +0.000 HD
ENDBRANCH  16  17
ENDBRANCH  12  16
ENDBRANCH   3  12
TORSDOF 8
ENDMDL
MODEL 9
REMARK VINA RESULT:    -5.740      2.629      3.252
REMARK INTER + INTRA:          -8.784
REMARK INTER:                  -8.053
REMARK INTRA:                  -0.731
REMARK UNBOUND:                -0.528
REMARK  Name = data/D/Ligand/Homocarnosine.pdb
REMARK  8 active torsions:
REMARK  status: ('A' for Active; 'I' for Inactive)
REMARK    1  A    between atoms: C70_1  and  C1_2
REMARK    2  A    between atoms: C70_1  and  N12_28
REMARK    3  A    between atoms: C1_2  and  C2_3
REMARK    4  A    between atoms: C2_3  and  C3_4
REMARK    5  A    between atoms: N1_6  and  C4_7
REMARK    6  A    between atoms: C4_7  and  C13_8
REMARK    7  A    between atoms: C4_7  and  C5_10
REMARK    8  A    between atoms: C13_8  and  C7_9
REMARK                            x       y       z     vdW  Elec       q    Type
REMARK                         _______ _______ _______ _____ _____    ______ ____
ROOT
ATOM      1  C3  BES A 501      25.540   1.466  27.861  0.00  0.00    +0.000 C 
ATOM      2  O3  BES A 501      25.090   0.888  26.896  0.00  0.00    +0.000 OA
ATOM      3  N1  BES A 501      26.955   1.409  28.252  0.00  0.00    +0.000 N 
ATOM      4  H7  BES A 501      26.962   1.037  29.255  0.00  0.00    +0.000 HD
ENDROOT
BRANCH   1   5
ATOM      5  C2  BES A 501      24.585   2.283  28.684  0.00  0.00    +0.000 C 
BRANCH   5   6
ATOM      6  C1  BES A 501      23.573   2.910  27.776  0.00  0.00    +0.000 C 
BRANCH   6   7
ATOM      7  C70 BES A 501      22.224   2.548  27.963  0.00  0.00    +0.000 C 
BRANCH   7   8
ATOM      8  N12 BES A 501      21.957   1.214  27.283  0.00  0.00    +0.000 N 
ATOM      9  H14 BES A 501      22.691   0.501  27.597  0.00  0.00    +0.000 HD
ATOM     10  H15 BES A 501      22.010   1.337  26.223  0.00  0.00    +0.000 HD
ATOM     11  H6  BES A 501      20.983   0.864  27.554  0.00  0.00    +0.000 HD
ENDBRANCH   7   8
ENDBRANCH   6   7
ENDBRANCH   5   6
ENDBRANCH   1   5
BRANCH   3  12
ATOM     12  C4  BES A 501      27.982   0.645  27.543  0.00  0.00    +0.000 C 
BRANCH  12  13
ATOM     13  C5  BES A 501      29.100   0.399  28.502  0.00  0.00    +0.000 C 
ATOM     14  O1  BES A 501      29.680  -0.722  28.503  0.00  0.00    +0.000 OA
ATOM     15  O4  BES A 501      29.448   1.364  29.251  0.00  0.00    +0.000 OA
ENDBRANCH  12  13
BRANCH  12  16
ATOM     16  C13 BES A 501      28.519   1.470  26.370  0.00  0.00    +0.000 C 
BRANCH  16  17
ATOM     17  C7  BES A 501      29.459   0.618  25.496  0.00  0.00    +0.000 A 
ATOM     18  C21 BES A 501      30.659   1.141  24.683  0.00  0.00    +0.000 A 
ATOM     19  N22 BES A 501      31.306  -0.059  23.967  0.00  0.00    +0.000 NA
ATOM     20  C23 BES A 501      30.506  -1.323  24.336  0.00  0.00    +0.000 A 
ATOM     21  N24 BES A 501      29.364  -0.904  25.282  0.00  0.00    +0.000 N 
ATOM     22  H13 BES A 501      28.635  -1.555  25.714  0.00  0.00    +0.000 HD
ENDBRANCH  16  17
ENDBRANCH  12  16
ENDBRANCH   3  12
TORSDOF 8
ENDMDL
