MODEL 1
REMARK VINA RESULT:    -6.726      0.000      0.000
REMARK INTER + INTRA:         -10.457
REMARK INTER:                  -9.871
REMARK INTRA:                  -0.586
REMARK UNBOUND:                -0.586
REMARK  Name = data/D/Ligand/Carnostatine.pdb
REMARK  9 active torsions:
REMARK  status: ('A' for Active; 'I' for Inactive)
REMARK    1  A    between atoms: C70_1  and  C1_2
REMARK    2  A    between atoms: C70_1  and  N12_28
REMARK    3  A    between atoms: C1_2  and  C2_3
REMARK    4  A    between atoms: C2_3  and  C3_4
REMARK    5  A    between atoms: C2_3  and  O5_19
REMARK    6  A    between atoms: N1_6  and  C4_7
REMARK    7  A    between atoms: C4_7  and  C13_8
REMARK    8  A    between atoms: C4_7  and  C5_10
REMARK    9  A    between atoms: C13_8  and  C7_9
REMARK                            x       y       z     vdW  Elec       q    Type
REMARK                         _______ _______ _______ _____ _____    ______ ____
ROOT
ATOM      1  C3  BES A 501      25.188   1.614  27.642  0.00  0.00    +0.000 C 
ATOM      2  O3  BES A 501      25.517   2.450  28.453  0.00  0.00    +0.000 OA
ATOM      3  N1  BES A 501      26.140   0.924  26.760  0.00  0.00    +0.000 N 
ATOM      4  H7  BES A 501      25.802   1.120  25.763  0.00  0.00    +0.000 HD
ENDROOT
BRANCH   3   5
ATOM      5  C4  BES A 501      27.582   1.169  26.740  0.00  0.00    +0.000 C 
BRANCH   5   6
ATOM      6  C5  BES A 501      27.979   1.398  25.318  0.00  0.00    +0.000 C 
ATOM      7  O1  BES A 501      27.248   0.948  24.392  0.00  0.00    +0.000 OA
ATOM      8  O4  BES A 501      29.026   2.084  25.109  0.00  0.00    +0.000 OA
ENDBRANCH   5   6
BRANCH   5   9
ATOM      9  C13 BES A 501      28.321  -0.068  27.259  0.00  0.00    +0.000 C 
BRANCH   9  10
ATOM     10  C7  BES A 501      29.636   0.338  27.952  0.00  0.00    +0.000 A 
ATOM     11  C21 BES A 501      30.605  -0.611  28.680  0.00  0.00    +0.000 A 
ATOM     12  N22 BES A 501      31.780   0.229  29.215  0.00  0.00    +0.000 NA
ATOM     13  C23 BES A 501      31.536   1.697  28.818  0.00  0.00    +0.000 A 
ATOM     14  N24 BES A 501      30.210   1.764  28.037  0.00  0.00    +0.000 N 
ATOM     15  H13 BES A 501      29.766   2.647  27.626  0.00  0.00    +0.000 HD
ENDBRANCH   9  10
ENDBRANCH   5   9
ENDBRANCH   3   5
BRANCH   1  16
ATOM     16  C2  BES A 501      23.728   1.274  27.553  0.00  0.00    +0.000 C 
BRANCH  16  17
ATOM     17  O5  BES A 501      23.296   0.582  28.811  0.00  0.00    +0.000 OA
ATOM     18  H15 BES A 501      23.767  -0.354  28.874  0.00  0.00    +0.000 HD
ENDBRANCH  16  17
BRANCH  16  19
ATOM     19  C1  BES A 501      22.944   2.538  27.379  0.00  0.00    +0.000 C 
BRANCH  19  20
ATOM     20  C70 BES A 501      21.540   2.442  27.439  0.00  0.00    +0.000 C 
BRANCH  20  21
ATOM     21  N12 BES A 501      21.029   1.699  26.214  0.00  0.00    +0.000 N 
ATOM     22  H14 BES A 501      21.667   0.864  26.012  0.00  0.00    +0.000 HD
ATOM     23  H15 BES A 501      21.028   2.357  25.372  0.00  0.00    +0.000 HD
ATOM     24  H1  BES A 501      20.034   1.351  26.396  0.00  0.00    +0.000 HD
ENDBRANCH  20  21
ENDBRANCH  19  20
ENDBRANCH  16  19
ENDBRANCH   1  16
TORSDOF 9
ENDMDL
MODEL 2
REMARK VINA RESULT:    -6.533      2.307      2.752
REMARK INTER + INTRA:         -10.174
REMARK INTER:                  -9.246
REMARK INTRA:                  -0.929
REMARK UNBOUND:                -0.586
REMARK  Name = data/D/Ligand/Carnostatine.pdb
REMARK  9 active torsions:
REMARK  status: ('A' for Active; 'I' for Inactive)
REMARK    1  A    between atoms: C70_1  and  C1_2
REMARK    2  A    between atoms: C70_1  and  N12_28
REMARK    3  A    between atoms: C1_2  and  C2_3
REMARK    4  A    between atoms: C2_3  and  C3_4
REMARK    5  A    between atoms: C2_3  and  O5_19
REMARK    6  A    between atoms: N1_6  and  C4_7
REMARK    7  A    between atoms: C4_7  and  C13_8
REMARK    8  A    between atoms: C4_7  and  C5_10
REMARK    9  A    between atoms: C13_8  and  C7_9
REMARK                            x       y       z     vdW  Elec       q    Type
REMARK                         _______ _______ _______ _____ _____    ______ ____
ROOT
ATOM      1  C3  BES A 501      26.632   0.907  28.153  0.00  0.00    +0.000 C 
ATOM      2  O3  BES A 501      26.966   1.324  29.240  0.00  0.00    +0.000 OA
ATOM      3  N1  BES A 501      27.583   0.609  27.073  0.00  0.00    +0.000 N 
ATOM      4  H7  BES A 501      27.272   1.209  26.243  0.00  0.00    +0.000 HD
ENDROOT
BRANCH   3   5
ATOM      5  C4  BES A 501      29.031   0.792  27.169  0.00  0.00    +0.000 C 
BRANCH   5   6
ATOM      6  C5  BES A 501      29.372   2.058  26.452  0.00  0.00    +0.000 C 
ATOM      7  O1  BES A 501      29.931   2.996  27.086  0.00  0.00    +0.000 OA
ATOM      8  O4  BES A 501      29.117   2.110  25.210  0.00  0.00    +0.000 OA
ENDBRANCH   5   6
BRANCH   5   9
ATOM      9  C13 BES A 501      29.743  -0.370  26.469  0.00  0.00    +0.000 C 
BRANCH   9  10
ATOM     10  C7  BES A 501      30.316  -1.355  27.506  0.00  0.00    +0.000 A 
ATOM     11  C21 BES A 501      31.751  -1.913  27.527  0.00  0.00    +0.000 A 
ATOM     12  N22 BES A 501      31.876  -2.858  28.736  0.00  0.00    +0.000 NA
ATOM     13  C23 BES A 501      30.518  -2.885  29.462  0.00  0.00    +0.000 A 
ATOM     14  N24 BES A 501      29.553  -1.955  28.701  0.00  0.00    +0.000 N 
ATOM     15  H13 BES A 501      28.533  -1.761  28.958  0.00  0.00    +0.000 HD
ENDBRANCH   9  10
ENDBRANCH   5   9
ENDBRANCH   3   5
BRANCH   1  16
ATOM     16  C2  BES A 501      25.165   0.684  27.920  0.00  0.00    +0.000 C 
BRANCH  16  17
ATOM     17  O5  BES A 501      24.659  -0.359  28.871  0.00  0.00    +0.000 OA
ATOM     18  H15 BES A 501      23.655  -0.159  29.108  0.00  0.00    +0.000 HD
ENDBRANCH  16  17
BRANCH  16  19
ATOM     19  C1  BES A 501      24.435   1.970  28.148  0.00  0.00    +0.000 C 
BRANCH  19  20
ATOM     20  C70 BES A 501      23.514   2.011  29.214  0.00  0.00    +0.000 C 
BRANCH  20  21
ATOM     21  N12 BES A 501      24.267   2.083  30.533  0.00  0.00    +0.000 N 
ATOM     22  H14 BES A 501      24.960   1.271  30.593  0.00  0.00    +0.000 HD
ATOM     23  H15 BES A 501      23.573   2.021  31.345  0.00  0.00    +0.000 HD
ATOM     24  H1  BES A 501      24.799   3.010  30.590  0.00  0.00    +0.000 HD
ENDBRANCH  20  21
ENDBRANCH  19  20
ENDBRANCH  16  19
ENDBRANCH   1  16
TORSDOF 9
ENDMDL
MODEL 3
REMARK VINA RESULT:    -6.299      1.621      6.939
REMARK INTER + INTRA:          -9.831
REMARK INTER:                  -9.211
REMARK INTRA:                  -0.619
REMARK UNBOUND:                -0.586
REMARK  Name = data/D/Ligand/Carnostatine.pdb
REMARK  9 active torsions:
REMARK  status: ('A' for Active; 'I' for Inactive)
REMARK    1  A    between atoms: C70_1  and  C1_2
REMARK    2  A    between atoms: C70_1  and  N12_28
REMARK    3  A    between atoms: C1_2  and  C2_3
REMARK    4  A    between atoms: C2_3  and  C3_4
REMARK    5  A    between atoms: C2_3  and  O5_19
REMARK    6  A    between atoms: N1_6  and  C4_7
REMARK    7  A    between atoms: C4_7  and  C13_8
REMARK    8  A    between atoms: C4_7  and  C5_10
REMARK    9  A    between atoms: C13_8  and  C7_9
REMARK                            x       y       z     vdW  Elec       q    Type
REMARK                         _______ _______ _______ _____ _____    ______ ____
ROOT
ATOM      1  C3  BES A 501      28.116   0.675  26.980  0.00  0.00    +0.000 C 
ATOM      2  O3  BES A 501      28.271   1.824  26.632  0.00  0.00    +0.000 OA
ATOM      3  N1  BES A 501      26.936   0.205  27.718  0.00  0.00    +0.000 N 
ATOM      4  H7  BES A 501      27.314  -0.230  28.619  0.00  0.00    +0.000 HD
ENDROOT
BRANCH   3   5
ATOM      5  C4  BES A 501      25.822   1.058  28.132  0.00  0.00    +0.000 C 
BRANCH   5   6
ATOM      6  C5  BES A 501      26.074   1.470  29.546  0.00  0.00    +0.000 C 
ATOM      7  O1  BES A 501      25.113   1.890  30.248  0.00  0.00    +0.000 OA
ATOM      8  O4  BES A 501      27.255   1.330  29.991  0.00  0.00    +0.000 OA
ENDBRANCH   5   6
BRANCH   5   9
ATOM      9  C13 BES A 501      24.516   0.259  28.083  0.00  0.00    +0.000 C 
BRANCH   9  10
ATOM     10  C7  BES A 501      23.361   1.141  27.574  0.00  0.00    +0.000 A 
ATOM     11  C21 BES A 501      23.435   2.653  27.290  0.00  0.00    +0.000 A 
ATOM     12  N22 BES A 501      22.049   3.113  26.800  0.00  0.00    +0.000 NA
ATOM     13  C23 BES A 501      21.118   1.886  26.782  0.00  0.00    +0.000 A 
ATOM     14  N24 BES A 501      21.930   0.666  27.261  0.00  0.00    +0.000 N 
ATOM     15  H13 BES A 501      21.563  -0.334  27.358  0.00  0.00    +0.000 HD
ENDBRANCH   9  10
ENDBRANCH   5   9
ENDBRANCH   3   5
BRANCH   1  16
ATOM     16  C2  BES A 501      29.196  -0.306  26.625  0.00  0.00    +0.000 C 
BRANCH  16  17
ATOM     17  O5  BES A 501      30.242   0.377  25.794  0.00  0.00    +0.000 OA
ATOM     18  H15 BES A 501      30.570  -0.275  25.039  0.00  0.00    +0.000 HD
ENDBRANCH  16  17
BRANCH  16  19
ATOM     19  C1  BES A 501      29.816  -0.825  27.884  0.00  0.00    +0.000 C 
BRANCH  19  20
ATOM     20  C70 BES A 501      30.661   0.047  28.598  0.00  0.00    +0.000 C 
BRANCH  20  21
ATOM     21  N12 BES A 501      30.095   0.277  29.991  0.00  0.00    +0.000 N 
ATOM     22  H14 BES A 501      30.437   1.219  30.364  0.00  0.00    +0.000 HD
ATOM     23  H15 BES A 501      30.423  -0.505  30.642  0.00  0.00    +0.000 HD
ATOM     24  H1  BES A 501      29.026   0.279  29.946  0.00  0.00    +0.000 HD
ENDBRANCH  20  21
ENDBRANCH  19  20
ENDBRANCH  16  19
ENDBRANCH   1  16
TORSDOF 9
ENDMDL
MODEL 4
REMARK VINA RESULT:    -6.267      2.841      3.462
REMARK INTER + INTRA:          -9.784
REMARK INTER:                  -9.095
REMARK INTRA:                  -0.690
REMARK UNBOUND:                -0.586
REMARK  Name = data/D/Ligand/Carnostatine.pdb
REMARK  9 active torsions:
REMARK  status: ('A' for Active; 'I' for Inactive)
REMARK    1  A    between atoms: C70_1  and  C1_2
REMARK    2  A    between atoms: C70_1  and  N12_28
REMARK    3  A    between atoms: C1_2  and  C2_3
REMARK    4  A    between atoms: C2_3  and  C3_4
REMARK    5  A    between atoms: C2_3  and  O5_19
REMARK    6  A    between atoms: N1_6  and  C4_7
REMARK    7  A    between atoms: C4_7  and  C13_8
REMARK    8  A    between atoms: C4_7  and  C5_10
REMARK    9  A    between atoms: C13_8  and  C7_9
REMARK                            x       y       z     vdW  Elec       q    Type
REMARK                         _______ _______ _______ _____ _____    ______ ____
ROOT
ATOM      1  C3  BES A 501      25.444   0.746  28.508  0.00  0.00    +0.000 C 
ATOM      2  O3  BES A 501      24.966   0.248  27.513  0.00  0.00    +0.000 OA
ATOM      3  N1  BES A 501      26.888   0.799  28.773  0.00  0.00    +0.000 N 
ATOM      4  H7  BES A 501      27.026   0.306  29.713  0.00  0.00    +0.000 HD
ENDROOT
BRANCH   3   5
ATOM      5  C4  BES A 501      27.915   0.250  27.888  0.00  0.00    +0.000 C 
BRANCH   5   6
ATOM      6  C5  BES A 501      29.184   0.163  28.672  0.00  0.00    +0.000 C 
ATOM      7  O1  BES A 501      29.876  -0.891  28.612  0.00  0.00    +0.000 OA
ATOM      8  O4  BES A 501      29.530   1.189  29.334  0.00  0.00    +0.000 OA
ENDBRANCH   5   6
BRANCH   5   9
ATOM      9  C13 BES A 501      28.137   1.200  26.707  0.00  0.00    +0.000 C 
BRANCH   9  10
ATOM     10  C7  BES A 501      29.140   0.594  25.707  0.00  0.00    +0.000 A 
ATOM     11  C21 BES A 501      30.182   1.376  24.885  0.00  0.00    +0.000 A 
ATOM     12  N22 BES A 501      30.963   0.366  24.024  0.00  0.00    +0.000 NA
ATOM     13  C23 BES A 501      30.404  -1.040  24.314  0.00  0.00    +0.000 A 
ATOM     14  N24 BES A 501      29.277  -0.899  25.354  0.00  0.00    +0.000 N 
ATOM     15  H13 BES A 501      28.693  -1.697  25.761  0.00  0.00    +0.000 HD
ENDBRANCH   9  10
ENDBRANCH   5   9
ENDBRANCH   3   5
BRANCH   1  16
ATOM     16  C2  BES A 501      24.494   1.340  29.508  0.00  0.00    +0.000 C 
BRANCH  16  17
ATOM     17  O5  BES A 501      25.226   1.632  30.784  0.00  0.00    +0.000 OA
ATOM     18  H15 BES A 501      24.793   1.085  31.569  0.00  0.00    +0.000 HD
ENDBRANCH  16  17
BRANCH  16  19
ATOM     19  C1  BES A 501      23.930   2.610  28.950  0.00  0.00    +0.000 C 
BRANCH  19  20
ATOM     20  C70 BES A 501      22.550   2.837  29.123  0.00  0.00    +0.000 C 
BRANCH  20  21
ATOM     21  N12 BES A 501      22.203   2.747  30.601  0.00  0.00    +0.000 N 
ATOM     22  H14 BES A 501      21.418   3.439  30.825  0.00  0.00    +0.000 HD
ATOM     23  H15 BES A 501      23.066   2.984  31.186  0.00  0.00    +0.000 HD
ATOM     24  H1  BES A 501      21.878   1.754  30.831  0.00  0.00    +0.000 HD
ENDBRANCH  20  21
ENDBRANCH  19  20
ENDBRANCH  16  19
ENDBRANCH   1  16
TORSDOF 9
ENDMDL
MODEL 5
REMARK VINA RESULT:    -6.222      2.520      6.704
REMARK INTER + INTRA:          -9.717
REMARK INTER:                  -8.759
REMARK INTRA:                  -0.959
REMARK UNBOUND:                -0.586
REMARK  Name = data/D/Ligand/Carnostatine.pdb
REMARK  9 active torsions:
REMARK  status: ('A' for Active; 'I' for Inactive)
REMARK    1  A    between atoms: C70_1  and  C1_2
REMARK    2  A    between atoms: C70_1  and  N12_28
REMARK    3  A    between atoms: C1_2  and  C2_3
REMARK    4  A    between atoms: C2_3  and  C3_4
REMARK    5  A    between atoms: C2_3  and  O5_19
REMARK    6  A    between atoms: N1_6  and  C4_7
REMARK    7  A    between atoms: C4_7  and  C13_8
REMARK    8  A    between atoms: C4_7  and  C5_10
REMARK    9  A    between atoms: C13_8  and  C7_9
REMARK                            x       y       z     vdW  Elec       q    Type
REMARK                         _______ _______ _______ _____ _____    ______ ____
ROOT
ATOM      1  C3  BES A 501      29.980  -0.924  27.909  0.00  0.00    +0.000 C 
ATOM      2  O3  BES A 501      29.163  -1.678  28.388  0.00  0.00    +0.000 OA
ATOM      3  N1  BES A 501      29.624   0.234  27.077  0.00  0.00    +0.000 N 
ATOM      4  H7  BES A 501      30.138   0.090  26.149  0.00  0.00    +0.000 HD
ENDROOT
BRANCH   3   5
ATOM      5  C4  BES A 501      28.257   0.607  26.715  0.00  0.00    +0.000 C 
BRANCH   5   6
ATOM      6  C5  BES A 501      28.312   1.270  25.378  0.00  0.00    +0.000 C 
ATOM      7  O1  BES A 501      29.265   2.056  25.116  0.00  0.00    +0.000 OA
ATOM      8  O4  BES A 501      27.406   0.969  24.541  0.00  0.00    +0.000 OA
ENDBRANCH   5   6
BRANCH   5   9
ATOM      9  C13 BES A 501      27.710   1.611  27.735  0.00  0.00    +0.000 C 
BRANCH   9  10
ATOM     10  C7  BES A 501      26.199   1.397  27.948  0.00  0.00    +0.000 A 
ATOM     11  C21 BES A 501      25.377   1.891  29.152  0.00  0.00    +0.000 A 
ATOM     12  N22 BES A 501      23.916   1.452  28.942  0.00  0.00    +0.000 NA
ATOM     13  C23 BES A 501      23.836   0.686  27.609  0.00  0.00    +0.000 A 
ATOM     14  N24 BES A 501      25.248   0.652  26.993  0.00  0.00    +0.000 N 
ATOM     15  H13 BES A 501      25.519   0.192  26.067  0.00  0.00    +0.000 HD
ENDBRANCH   9  10
ENDBRANCH   5   9
ENDBRANCH   3   5
BRANCH   1  16
ATOM     16  C2  BES A 501      31.428  -1.201  28.198  0.00  0.00    +0.000 C 
BRANCH  16  17
ATOM     17  O5  BES A 501      31.775  -0.685  29.562  0.00  0.00    +0.000 OA
ATOM     18  H15 BES A 501      31.370  -1.324  30.291  0.00  0.00    +0.000 HD
ENDBRANCH  16  17
BRANCH  16  19
ATOM     19  C1  BES A 501      31.661  -2.679  28.144  0.00  0.00    +0.000 C 
BRANCH  19  20
ATOM     20  C70 BES A 501      31.927  -3.336  29.362  0.00  0.00    +0.000 C 
BRANCH  20  21
ATOM     21  N12 BES A 501      30.634  -3.489  30.149  0.00  0.00    +0.000 N 
ATOM     22  H14 BES A 501      29.841  -2.991  29.632  0.00  0.00    +0.000 HD
ATOM     23  H15 BES A 501      30.754  -3.056  31.120  0.00  0.00    +0.000 HD
ATOM     24  H1  BES A 501      30.398  -4.527  30.249  0.00  0.00    +0.000 HD
ENDBRANCH  20  21
ENDBRANCH  19  20
ENDBRANCH  16  19
ENDBRANCH   1  16
TORSDOF 9
ENDMDL
MODEL 6
REMARK VINA RESULT:    -6.221      2.481      3.019
REMARK INTER + INTRA:          -9.716
REMARK INTER:                  -9.076
REMARK INTRA:                  -0.639
REMARK UNBOUND:                -0.586
REMARK  Name = data/D/Ligand/Carnostatine.pdb
REMARK  9 active torsions:
REMARK  status: ('A' for Active; 'I' for Inactive)
REMARK    1  A    between atoms: C70_1  and  C1_2
REMARK    2  A    between atoms: C70_1  and  N12_28
REMARK    3  A    between atoms: C1_2  and  C2_3
REMARK    4  A    between atoms: C2_3  and  C3_4
REMARK    5  A    between atoms: C2_3  and  O5_19
REMARK    6  A    between atoms: N1_6  and  C4_7
REMARK    7  A    between atoms: C4_7  and  C13_8
REMARK    8  A    between atoms: C4_7  and  C5_10
REMARK    9  A    between atoms: C13_8  and  C7_9
REMARK                            x       y       z     vdW  Elec       q    Type
REMARK                         _______ _______ _______ _____ _____    ______ ____
ROOT
ATOM      1  C3  BES A 501      26.183   1.223  28.680  0.00  0.00    +0.000 C 
ATOM      2  O3  BES A 501      26.259   1.362  29.881  0.00  0.00    +0.000 OA
ATOM      3  N1  BES A 501      27.346   0.962  27.820  0.00  0.00    +0.000 N 
ATOM      4  H7  BES A 501      27.354   1.754  27.099  0.00  0.00    +0.000 HD
ENDROOT
BRANCH   3   5
ATOM      5  C4  BES A 501      28.724   0.855  28.299  0.00  0.00    +0.000 C 
BRANCH   5   6
ATOM      6  C5  BES A 501      29.463   2.059  27.813  0.00  0.00    +0.000 C 
ATOM      7  O1  BES A 501      28.911   2.827  26.977  0.00  0.00    +0.000 OA
ATOM      8  O4  BES A 501      30.611   2.277  28.308  0.00  0.00    +0.000 OA
ENDBRANCH   5   6
BRANCH   5   9
ATOM      9  C13 BES A 501      29.380  -0.393  27.700  0.00  0.00    +0.000 C 
BRANCH   9  10
ATOM     10  C7  BES A 501      29.954  -0.085  26.303  0.00  0.00    +0.000 A 
ATOM     11  C21 BES A 501      29.162  -0.076  24.982  0.00  0.00    +0.000 A 
ATOM     12  N22 BES A 501      30.138   0.282  23.846  0.00  0.00    +0.000 NA
ATOM     13  C23 BES A 501      31.533   0.494  24.465  0.00  0.00    +0.000 A 
ATOM     14  N24 BES A 501      31.418   0.267  25.985  0.00  0.00    +0.000 N 
ATOM     15  H13 BES A 501      32.216   0.341  26.693  0.00  0.00    +0.000 HD
ENDBRANCH   9  10
ENDBRANCH   5   9
ENDBRANCH   3   5
BRANCH   1  16
ATOM     16  C2  BES A 501      24.820   1.321  28.058  0.00  0.00    +0.000 C 
BRANCH  16  17
ATOM     17  O5  BES A 501      23.946   0.224  28.589  0.00  0.00    +0.000 OA
ATOM     18  H15 BES A 501      23.338  -0.144  27.815  0.00  0.00    +0.000 HD
ENDBRANCH  16  17
BRANCH  16  19
ATOM     19  C1  BES A 501      24.222   2.650  28.401  0.00  0.00    +0.000 C 
BRANCH  19  20
ATOM     20  C70 BES A 501      23.067   2.651  29.208  0.00  0.00    +0.000 C 
BRANCH  20  21
ATOM     21  N12 BES A 501      23.469   2.543  30.671  0.00  0.00    +0.000 N 
ATOM     22  H14 BES A 501      23.894   3.470  30.993  0.00  0.00    +0.000 HD
ATOM     23  H15 BES A 501      24.190   1.761  30.786  0.00  0.00    +0.000 HD
ATOM     24  H1  BES A 501      22.606   2.321  31.263  0.00  0.00    +0.000 HD
ENDBRANCH  20  21
ENDBRANCH  19  20
ENDBRANCH  16  19
ENDBRANCH   1  16
TORSDOF 9
ENDMDL
MODEL 7
REMARK VINA RESULT:    -6.205      2.267      2.538
REMARK INTER + INTRA:          -9.692
REMARK INTER:                  -9.537
REMARK INTRA:                  -0.155
REMARK UNBOUND:                -0.586
REMARK  Name = data/D/Ligand/Carnostatine.pdb
REMARK  9 active torsions:
REMARK  status: ('A' for Active; 'I' for Inactive)
REMARK    1  A    between atoms: C70_1  and  C1_2
REMARK    2  A    between atoms: C70_1  and  N12_28
REMARK    3  A    between atoms: C1_2  and  C2_3
REMARK    4  A    between atoms: C2_3  and  C3_4
REMARK    5  A    between atoms: C2_3  and  O5_19
REMARK    6  A    between atoms: N1_6  and  C4_7
REMARK    7  A    between atoms: C4_7  and  C13_8
REMARK    8  A    between atoms: C4_7  and  C5_10
REMARK    9  A    between atoms: C13_8  and  C7_9
REMARK                            x       y       z     vdW  Elec       q    Type
REMARK                         _______ _______ _______ _____ _____    ______ ____
ROOT
ATOM      1  C3  BES A 501      26.381   1.329  28.887  0.00  0.00    +0.000 C 
ATOM      2  O3  BES A 501      27.187   1.330  29.791  0.00  0.00    +0.000 OA
ATOM      3  N1  BES A 501      26.756   1.266  27.468  0.00  0.00    +0.000 N 
ATOM      4  H7  BES A 501      26.323   2.136  27.017  0.00  0.00    +0.000 HD
ENDROOT
BRANCH   3   5
ATOM      5  C4  BES A 501      28.132   1.213  26.975  0.00  0.00    +0.000 C 
BRANCH   5   6
ATOM      6  C5  BES A 501      28.099   1.538  25.517  0.00  0.00    +0.000 C 
ATOM      7  O1  BES A 501      27.248   0.972  24.776  0.00  0.00    +0.000 OA
ATOM      8  O4  BES A 501      28.913   2.417  25.098  0.00  0.00    +0.000 OA
ENDBRANCH   5   6
BRANCH   5   9
ATOM      9  C13 BES A 501      28.684  -0.205  27.145  0.00  0.00    +0.000 C 
BRANCH   9  10
ATOM     10  C7  BES A 501      29.746  -0.505  26.070  0.00  0.00    +0.000 A 
ATOM     11  C21 BES A 501      31.242  -0.145  26.151  0.00  0.00    +0.000 A 
ATOM     12  N22 BES A 501      31.919  -0.634  24.857  0.00  0.00    +0.000 NA
ATOM     13  C23 BES A 501      30.842  -1.295  23.976  0.00  0.00    +0.000 A 
ATOM     14  N24 BES A 501      29.499  -1.215  24.726  0.00  0.00    +0.000 N 
ATOM     15  H13 BES A 501      28.559  -1.588  24.376  0.00  0.00    +0.000 HD
ENDBRANCH   9  10
ENDBRANCH   5   9
ENDBRANCH   3   5
BRANCH   1  16
ATOM     16  C2  BES A 501      24.927   1.391  29.258  0.00  0.00    +0.000 C 
BRANCH  16  17
ATOM     17  O5  BES A 501      24.794   1.720  30.716  0.00  0.00    +0.000 OA
ATOM     18  H15 BES A 501      24.663   2.755  30.830  0.00  0.00    +0.000 HD
ENDBRANCH  16  17
BRANCH  16  19
ATOM     19  C1  BES A 501      24.261   2.454  28.441  0.00  0.00    +0.000 C 
BRANCH  19  20
ATOM     20  C70 BES A 501      22.852   2.484  28.444  0.00  0.00    +0.000 C 
BRANCH  20  21
ATOM     21  N12 BES A 501      22.317   1.317  27.628  0.00  0.00    +0.000 N 
ATOM     22  H14 BES A 501      22.707   0.401  28.018  0.00  0.00    +0.000 HD
ATOM     23  H15 BES A 501      22.618   1.427  26.608  0.00  0.00    +0.000 HD
ATOM     24  H1  BES A 501      21.249   1.302  27.685  0.00  0.00    +0.000 HD
ENDBRANCH  20  21
ENDBRANCH  19  20
ENDBRANCH  16  19
ENDBRANCH   1  16
TORSDOF 9
ENDMDL
MODEL 8
REMARK VINA RESULT:    -6.189      1.939      6.958
REMARK INTER + INTRA:          -9.670
REMARK INTER:                  -8.786
REMARK INTRA:                  -0.884
REMARK UNBOUND:                -0.586
REMARK  Name = data/D/Ligand/Carnostatine.pdb
REMARK  9 active torsions:
REMARK  status: ('A' for Active; 'I' for Inactive)
REMARK    1  A    between atoms: C70_1  and  C1_2
REMARK    2  A    between atoms: C70_1  and  N12_28
REMARK    3  A    between atoms: C1_2  and  C2_3
REMARK    4  A    between atoms: C2_3  and  C3_4
REMARK    5  A    between atoms: C2_3  and  O5_19
REMARK    6  A    between atoms: N1_6  and  C4_7
REMARK    7  A    between atoms: C4_7  and  C13_8
REMARK    8  A    between atoms: C4_7  and  C5_10
REMARK    9  A    between atoms: C13_8  and  C7_9
REMARK                            x       y       z     vdW  Elec       q    Type
REMARK                         _______ _______ _______ _____ _____    ______ ____
ROOT
ATOM      1  C3  BES A 501      27.614   1.377  26.488  0.00  0.00    +0.000 C 
ATOM      2  O3  BES A 501      28.141   2.091  27.312  0.00  0.00    +0.000 OA
ATOM      3  N1  BES A 501      26.213   0.941  26.573  0.00  0.00    +0.000 N 
ATOM      4  H7  BES A 501      26.243  -0.129  26.564  0.00  0.00    +0.000 HD
ENDROOT
BRANCH   3   5
ATOM      5  C4  BES A 501      25.297   1.297  27.658  0.00  0.00    +0.000 C 
BRANCH   5   6
ATOM      6  C5  BES A 501      25.732   0.549  28.875  0.00  0.00    +0.000 C 
ATOM      7  O1  BES A 501      25.893  -0.701  28.808  0.00  0.00    +0.000 OA
ATOM      8  O4  BES A 501      25.964   1.227  29.923  0.00  0.00    +0.000 OA
ENDBRANCH   5   6
BRANCH   5   9
ATOM      9  C13 BES A 501      23.876   0.855  27.296  0.00  0.00    +0.000 C 
BRANCH   9  10
ATOM     10  C7  BES A 501      22.837   1.699  28.059  0.00  0.00    +0.000 A 
ATOM     11  C21 BES A 501      21.551   2.304  27.466  0.00  0.00    +0.000 A 
ATOM     12  N22 BES A 501      20.821   3.063  28.590  0.00  0.00    +0.000 NA
ATOM     13  C23 BES A 501      21.656   2.927  29.877  0.00  0.00    +0.000 A 
ATOM     14  N24 BES A 501      22.902   2.083  29.549  0.00  0.00    +0.000 N 
ATOM     15  H13 BES A 501      23.676   1.812  30.235  0.00  0.00    +0.000 HD
ENDBRANCH   9  10
ENDBRANCH   5   9
ENDBRANCH   3   5
BRANCH   1  16
ATOM     16  C2  BES A 501      28.450   0.930  25.324  0.00  0.00    +0.000 C 
BRANCH  16  17
ATOM     17  O5  BES A 501      29.238   2.092  24.796  0.00  0.00    +0.000 OA
ATOM     18  H15 BES A 501      28.890   2.343  23.838  0.00  0.00    +0.000 HD
ENDBRANCH  16  17
BRANCH  16  19
ATOM     19  C1  BES A 501      29.386  -0.146  25.782  0.00  0.00    +0.000 C 
BRANCH  19  20
ATOM     20  C70 BES A 501      30.767   0.126  25.713  0.00  0.00    +0.000 C 
BRANCH  20  21
ATOM     21  N12 BES A 501      31.141   1.128  26.794  0.00  0.00    +0.000 N 
ATOM     22  H14 BES A 501      31.766   0.652  27.520  0.00  0.00    +0.000 HD
ATOM     23  H15 BES A 501      30.254   1.489  27.269  0.00  0.00    +0.000 HD
ATOM     24  H1  BES A 501      31.668   1.948  26.353  0.00  0.00    +0.000 HD
ENDBRANCH  20  21
ENDBRANCH  19  20
ENDBRANCH  16  19
ENDBRANCH   1  16
TORSDOF 9
ENDMDL
MODEL 9
REMARK VINA RESULT:    -6.188      2.378      6.585
REMARK INTER + INTRA:          -9.668
REMARK INTER:                  -8.845
REMARK INTRA:                  -0.823
REMARK UNBOUND:                -0.586
REMARK  Name = data/D/Ligand/Carnostatine.pdb
REMARK  9 active torsions:
REMARK  status: ('A' for Active; 'I' for Inactive)
REMARK    1  A    between atoms: C70_1  and  C1_2
REMARK    2  A    between atoms: C70_1  and  N12_28
REMARK    3  A    between atoms: C1_2  and  C2_3
REMARK    4  A    between atoms: C2_3  and  C3_4
REMARK    5  A    between atoms: C2_3  and  O5_19
REMARK    6  A    between atoms: N1_6  and  C4_7
REMARK    7  A    between atoms: C4_7  and  C13_8
REMARK    8  A    between atoms: C4_7  and  C5_10
REMARK    9  A    between atoms: C13_8  and  C7_9
REMARK                            x       y       z     vdW  Elec       q    Type
REMARK                         _______ _______ _______ _____ _____    ______ ____
ROOT
ATOM      1  C3  BES A 501      28.750   1.027  25.545  0.00  0.00    +0.000 C 
ATOM      2  O3  BES A 501      28.921   2.225  25.542  0.00  0.00    +0.000 OA
ATOM      3  N1  BES A 501      27.941   0.327  26.554  0.00  0.00    +0.000 N 
ATOM      4  H7  BES A 501      28.596  -0.395  26.997  0.00  0.00    +0.000 HD
ENDROOT
BRANCH   3   5
ATOM      5  C4  BES A 501      27.265   0.981  27.675  0.00  0.00    +0.000 C 
BRANCH   5   6
ATOM      6  C5  BES A 501      28.213   0.986  28.829  0.00  0.00    +0.000 C 
ATOM      7  O1  BES A 501      27.817   1.407  29.952  0.00  0.00    +0.000 OA
ATOM      8  O4  BES A 501      29.375   0.516  28.630  0.00  0.00    +0.000 OA
ENDBRANCH   5   6
BRANCH   5   9
ATOM      9  C13 BES A 501      26.024   0.174  28.067  0.00  0.00    +0.000 C 
BRANCH   9  10
ATOM     10  C7  BES A 501      24.896   1.112  28.539  0.00  0.00    +0.000 A 
ATOM     11  C21 BES A 501      23.717   1.612  27.684  0.00  0.00    +0.000 A 
ATOM     12  N22 BES A 501      22.843   2.523  28.566  0.00  0.00    +0.000 NA
ATOM     13  C23 BES A 501      23.482   2.587  29.966  0.00  0.00    +0.000 A 
ATOM     14  N24 BES A 501      24.752   1.714  29.949  0.00  0.00    +0.000 N 
ATOM     15  H13 BES A 501      25.415   1.554  30.773  0.00  0.00    +0.000 HD
ENDBRANCH   9  10
ENDBRANCH   5   9
ENDBRANCH   3   5
BRANCH   1  16
ATOM     16  C2  BES A 501      29.401   0.232  24.450  0.00  0.00    +0.000 C 
BRANCH  16  17
ATOM     17  O5  BES A 501      30.424   1.081  23.754  0.00  0.00    +0.000 OA
ATOM     18  H15 BES A 501      31.360   0.608  23.801  0.00  0.00    +0.000 HD
ENDBRANCH  16  17
BRANCH  16  19
ATOM     19  C1  BES A 501      30.066  -0.968  25.049  0.00  0.00    +0.000 C 
BRANCH  19  20
ATOM     20  C70 BES A 501      31.320  -0.774  25.663  0.00  0.00    +0.000 C 
BRANCH  20  21
ATOM     21  N12 BES A 501      31.240  -1.195  27.122  0.00  0.00    +0.000 N 
ATOM     22  H14 BES A 501      30.920  -0.365  27.716  0.00  0.00    +0.000 HD
ATOM     23  H15 BES A 501      32.204  -1.520  27.453  0.00  0.00    +0.000 HD
ATOM     24  H1  BES A 501      30.540  -1.997  27.224  0.00  0.00    +0.000 HD
ENDBRANCH  20  21
ENDBRANCH  19  20
ENDBRANCH  16  19
ENDBRANCH   1  16
TORSDOF 9
ENDMDL
