MODEL 1
REMARK VINA RESULT:    -1.745      0.000      0.000
REMARK INTER + INTRA:           7.287
REMARK INTER:                  -3.326
REMARK INTRA:                  10.612
REMARK UNBOUND:                10.612
REMARK  Name = data/B/Ligand/Acarbose.pdb
REMARK  23 active torsions:
REMARK  status: ('A' for Active; 'I' for Inactive)
REMARK    1  A    between atoms: O1_1  and  C22_22
REMARK    2  A    between atoms: O1_1  and  C25_25
REMARK    3  A    between atoms: O4_4  and  C30_30
REMARK    4  A    between atoms: O4_4  and  C32_32
REMARK    5  A    between atoms: O5_5  and  C21_21
REMARK    6  A    between atoms: O6_6  and  C23_23
REMARK    7  A    between atoms: O7_7  and  C26_26
REMARK    8  A    between atoms: O9_9  and  C29_29
REMARK    9  A    between atoms: O10_10  and  C31_31
REMARK   10  A    between atoms: O11_11  and  C33_33
REMARK   11  A    between atoms: O12_12  and  C34_34
REMARK   12  A    between atoms: O13_13  and  C38_38
REMARK   13  A    between atoms: O14_14  and  C39_39
REMARK   14  A    between atoms: O15_15  and  C40_40
REMARK   15  A    between atoms: O16_16  and  C42_42
REMARK   16  A    between atoms: O17_17  and  C43_43
REMARK   17  A    between atoms: O18_18  and  C44_44
REMARK   18  A    between atoms: N19_19  and  C20_20
REMARK   19  A    between atoms: N19_19  and  C28_28
REMARK   20  A    between atoms: C24_24  and  C35_35
REMARK   21  A    between atoms: C27_27  and  C39_39
REMARK   22  A    between atoms: C36_36  and  C43_43
REMARK   23  A    between atoms: C41_41  and  C44_44
REMARK                            x       y       z     vdW  Elec       q    Type
REMARK                         _______ _______ _______ _____ _____    ______ ____
ROOT
ATOM      1  O1  UNK     0     -32.534  14.932 -24.485  0.00  0.00    +0.000 OA
ENDROOT
BRANCH   1   7
ATOM      2  O2  UNK     0     -33.195  14.525 -26.694  0.00  0.00    +0.000 OA
ATOM      3  C20 UNK     0     -35.559  14.307 -27.375  0.00  0.00    +0.000 C 
ATOM      4  C21 UNK     0     -35.978  14.844 -25.993  0.00  0.00    +0.000 C 
ATOM      5  C23 UNK     0     -34.877  14.679 -24.942  0.00  0.00    +0.000 C 
ATOM      6  C24 UNK     0     -34.125  14.726 -27.767  0.00  0.00    +0.000 C 
ATOM      7  C25 UNK     0     -33.532  15.181 -25.474  0.00  0.00    +0.000 C 
ATOM      8  C35 UNK     0     -34.034  16.155 -28.307  0.00  0.00    +0.000 C 
BRANCH   4   9
ATOM      9  O5  UNK     0     -36.299  16.231 -26.091  0.00  0.00    +0.000 OA
ATOM     10  H70 UNK     0     -36.591  16.401 -27.004  0.00  0.00    +0.000 HD
ENDBRANCH   4   9
BRANCH   5  11
ATOM     11  O6  UNK     0     -34.746  13.303 -24.588  0.00  0.00    +0.000 OA
ATOM     12  H72 UNK     0     -35.321  12.792 -25.184  0.00  0.00    +0.000 HD
ENDBRANCH   5  11
BRANCH   3  13
ATOM     13  N19 UNK     0     -35.631  12.840 -27.367  0.00  0.00    +0.000 NA
ATOM     14  H55 UNK     0     -35.156  12.472 -26.544  0.00  0.00    +0.000 HD
BRANCH  13  15
ATOM     15  C28 UNK     0     -37.026  12.392 -27.399  0.00  0.00    +0.000 C 
ATOM     16  C31 UNK     0     -37.950  13.514 -27.922  0.00  0.00    +0.000 C 
ATOM     17  C33 UNK     0     -39.428  13.162 -27.708  0.00  0.00    +0.000 C 
ATOM     18  C37 UNK     0     -37.458  11.846 -26.063  0.00  0.00    +0.000 C 
ATOM     19  C38 UNK     0     -39.748  12.849 -26.234  0.00  0.00    +0.000 C 
ATOM     20  C41 UNK     0     -38.673  12.055 -25.524  0.00  0.00    +0.000 C 
BRANCH  16  21
ATOM     21  O10 UNK     0     -37.663  14.762 -27.291  0.00  0.00    +0.000 OA
ATOM     22  H77 UNK     0     -38.348  14.915 -26.619  0.00  0.00    +0.000 HD
ENDBRANCH  16  21
BRANCH  17  23
ATOM     23  O11 UNK     0     -39.767  12.019 -28.494  0.00  0.00    +0.000 OA
ATOM     24  H80 UNK     0     -40.173  12.338 -29.318  0.00  0.00    +0.000 HD
ENDBRANCH  17  23
BRANCH  19  25
ATOM     25  O13 UNK     0     -39.932  14.068 -25.515  0.00  0.00    +0.000 OA
ATOM     26  H82 UNK     0     -40.888  14.246 -25.479  0.00  0.00    +0.000 HD
ENDBRANCH  19  25
BRANCH  20  27
ATOM     27  C44 UNK     0     -39.042  11.490 -24.183  0.00  0.00    +0.000 C 
BRANCH  27  28
ATOM     28  O18 UNK     0     -39.895  12.391 -23.505  0.00  0.00    +0.000 OA
ATOM     29  H87 UNK     0     -40.802  12.053 -23.596  0.00  0.00    +0.000 HD
ENDBRANCH  27  28
ENDBRANCH  20  27
ENDBRANCH  13  15
ENDBRANCH   3  13
ENDBRANCH   1   7
BRANCH   1  31
ATOM     30  O3  UNK     0     -34.833  16.738 -23.894  0.00  0.00    +0.000 OA
ATOM     31  C22 UNK     0     -32.547  15.938 -23.467  0.00  0.00    +0.000 C 
ATOM     32  C26 UNK     0     -31.990  17.228 -24.082  0.00  0.00    +0.000 C 
ATOM     33  C27 UNK     0     -33.986  16.079 -22.943  0.00  0.00    +0.000 C 
ATOM     34  C29 UNK     0     -33.011  17.911 -24.994  0.00  0.00    +0.000 C 
ATOM     35  C30 UNK     0     -34.377  18.022 -24.313  0.00  0.00    +0.000 C 
BRANCH  32  36
ATOM     36  O7  UNK     0     -31.622  18.140 -23.052  0.00  0.00    +0.000 OA
ATOM     37  H73 UNK     0     -32.403  18.276 -22.489  0.00  0.00    +0.000 HD
ENDBRANCH  32  36
BRANCH  34  38
ATOM     38  O9  UNK     0     -33.139  17.168 -26.207  0.00  0.00    +0.000 OA
ATOM     39  H74 UNK     0     -32.323  17.298 -26.718  0.00  0.00    +0.000 HD
ENDBRANCH  34  38
BRANCH  35  40
ATOM     40  O4  UNK     0     -35.296  18.598 -25.239  0.00  0.00    +0.000 OA
BRANCH  40  42
ATOM     41  O8  UNK     0     -38.698  18.983 -23.871  0.00  0.00    +0.000 OA
ATOM     42  C32 UNK     0     -36.370  19.251 -24.565  0.00  0.00    +0.000 C 
ATOM     43  C34 UNK     0     -36.749  20.496 -25.372  0.00  0.00    +0.000 C 
ATOM     44  C36 UNK     0     -37.565  18.300 -24.420  0.00  0.00    +0.000 C 
ATOM     45  C40 UNK     0     -38.034  21.117 -24.828  0.00  0.00    +0.000 C 
ATOM     46  C42 UNK     0     -39.145  20.076 -24.677  0.00  0.00    +0.000 C 
BRANCH  43  47
ATOM     47  O12 UNK     0     -35.686  21.445 -25.255  0.00  0.00    +0.000 OA
ATOM     48  H81 UNK     0     -35.838  22.154 -25.903  0.00  0.00    +0.000 HD
ENDBRANCH  43  47
BRANCH  45  49
ATOM     49  O15 UNK     0     -38.455  22.164 -25.695  0.00  0.00    +0.000 OA
ATOM     50  H84 UNK     0     -38.532  22.974 -25.161  0.00  0.00    +0.000 HD
ENDBRANCH  45  49
BRANCH  46  51
ATOM     51  O16 UNK     0     -39.666  19.643 -25.932  0.00  0.00    +0.000 OA
ATOM     52  H85 UNK     0     -40.461  19.118 -25.747  0.00  0.00    +0.000 HD
ENDBRANCH  46  51
BRANCH  44  53
ATOM     53  C43 UNK     0     -37.256  17.129 -23.490  0.00  0.00    +0.000 C 
BRANCH  53  54
ATOM     54  O17 UNK     0     -38.002  16.005 -23.919  0.00  0.00    +0.000 OA
ATOM     55  H86 UNK     0     -38.872  16.330 -24.203  0.00  0.00    +0.000 HD
ENDBRANCH  53  54
ENDBRANCH  44  53
ENDBRANCH  40  42
ENDBRANCH  35  40
BRANCH  33  56
ATOM     56  C39 UNK     0     -34.079  16.739 -21.569  0.00  0.00    +0.000 C 
BRANCH  56  57
ATOM     57  O14 UNK     0     -32.811  16.659 -20.945  0.00  0.00    +0.000 OA
ATOM     58  H83 UNK     0     -32.944  16.236 -20.079  0.00  0.00    +0.000 HD
ENDBRANCH  56  57
ENDBRANCH  33  56
ENDBRANCH   1  31
TORSDOF 22
ENDMDL
MODEL 2
REMARK VINA RESULT:    -1.671      2.062      7.212
REMARK INTER + INTRA:           7.427
REMARK INTER:                   5.011
REMARK INTRA:                   2.416
REMARK UNBOUND:                10.612
REMARK  Name = data/B/Ligand/Acarbose.pdb
REMARK  23 active torsions:
REMARK  status: ('A' for Active; 'I' for Inactive)
REMARK    1  A    between atoms: O1_1  and  C22_22
REMARK    2  A    between atoms: O1_1  and  C25_25
REMARK    3  A    between atoms: O4_4  and  C30_30
REMARK    4  A    between atoms: O4_4  and  C32_32
REMARK    5  A    between atoms: O5_5  and  C21_21
REMARK    6  A    between atoms: O6_6  and  C23_23
REMARK    7  A    between atoms: O7_7  and  C26_26
REMARK    8  A    between atoms: O9_9  and  C29_29
REMARK    9  A    between atoms: O10_10  and  C31_31
REMARK   10  A    between atoms: O11_11  and  C33_33
REMARK   11  A    between atoms: O12_12  and  C34_34
REMARK   12  A    between atoms: O13_13  and  C38_38
REMARK   13  A    between atoms: O14_14  and  C39_39
REMARK   14  A    between atoms: O15_15  and  C40_40
REMARK   15  A    between atoms: O16_16  and  C42_42
REMARK   16  A    between atoms: O17_17  and  C43_43
REMARK   17  A    between atoms: O18_18  and  C44_44
REMARK   18  A    between atoms: N19_19  and  C20_20
REMARK   19  A    between atoms: N19_19  and  C28_28
REMARK   20  A    between atoms: C24_24  and  C35_35
REMARK   21  A    between atoms: C27_27  and  C39_39
REMARK   22  A    between atoms: C36_36  and  C43_43
REMARK   23  A    between atoms: C41_41  and  C44_44
REMARK                            x       y       z     vdW  Elec       q    Type
REMARK                         _______ _______ _______ _____ _____    ______ ____
ROOT
ATOM      1  O1  UNK     0     -38.718  15.645 -26.849  0.00  0.00    +0.000 OA
ENDROOT
BRANCH   1   7
ATOM      2  O2  UNK     0     -38.047  17.149 -25.185  0.00  0.00    +0.000 OA
ATOM      3  C20 UNK     0     -39.573  18.803 -24.169  0.00  0.00    +0.000 C 
ATOM      4  C21 UNK     0     -40.758  18.078 -24.835  0.00  0.00    +0.000 C 
ATOM      5  C23 UNK     0     -40.326  17.228 -26.034  0.00  0.00    +0.000 C 
ATOM      6  C24 UNK     0     -38.339  17.891 -23.994  0.00  0.00    +0.000 C 
ATOM      7  C25 UNK     0     -39.122  16.353 -25.679  0.00  0.00    +0.000 C 
ATOM      8  C35 UNK     0     -38.436  16.961 -22.782  0.00  0.00    +0.000 C 
BRANCH   4   9
ATOM      9  O5  UNK     0     -41.396  17.224 -23.886  0.00  0.00    +0.000 OA
ATOM     10  H70 UNK     0     -42.329  17.493 -23.831  0.00  0.00    +0.000 HD
ENDBRANCH   4   9
BRANCH   5  11
ATOM     11  O6  UNK     0     -39.973  18.074 -27.127  0.00  0.00    +0.000 OA
ATOM     12  H72 UNK     0     -39.038  18.320 -27.016  0.00  0.00    +0.000 HD
ENDBRANCH   5  11
BRANCH   3  13
ATOM     13  N19 UNK     0     -39.186  19.958 -24.992  0.00  0.00    +0.000 NA
ATOM     14  H55 UNK     0     -39.833  20.729 -24.837  0.00  0.00    +0.000 HD
BRANCH  13  15
ATOM     15  C28 UNK     0     -37.812  20.370 -24.689  0.00  0.00    +0.000 C 
ATOM     16  C31 UNK     0     -37.540  21.797 -25.212  0.00  0.00    +0.000 C 
ATOM     17  C33 UNK     0     -36.045  22.137 -25.147  0.00  0.00    +0.000 C 
ATOM     18  C37 UNK     0     -36.813  19.358 -25.187  0.00  0.00    +0.000 C 
ATOM     19  C38 UNK     0     -35.178  21.115 -25.906  0.00  0.00    +0.000 C 
ATOM     20  C41 UNK     0     -35.633  19.681 -25.747  0.00  0.00    +0.000 C 
BRANCH  16  21
ATOM     21  O10 UNK     0     -38.006  21.960 -26.552  0.00  0.00    +0.000 OA
ATOM     22  H77 UNK     0     -38.364  22.859 -26.630  0.00  0.00    +0.000 HD
ENDBRANCH  16  21
BRANCH  17  23
ATOM     23  O11 UNK     0     -35.619  22.164 -23.785  0.00  0.00    +0.000 OA
ATOM     24  H80 UNK     0     -36.398  21.990 -23.229  0.00  0.00    +0.000 HD
ENDBRANCH  17  23
BRANCH  19  25
ATOM     25  O13 UNK     0     -35.189  21.420 -27.301  0.00  0.00    +0.000 OA
ATOM     26  H82 UNK     0     -36.115  21.562 -27.562  0.00  0.00    +0.000 HD
ENDBRANCH  19  25
BRANCH  20  27
ATOM     27  C44 UNK     0     -34.683  18.624 -26.231  0.00  0.00    +0.000 C 
BRANCH  27  28
ATOM     28  O18 UNK     0     -35.411  17.491 -26.661  0.00  0.00    +0.000 OA
ATOM     29  H87 UNK     0     -35.996  17.781 -27.382  0.00  0.00    +0.000 HD
ENDBRANCH  27  28
ENDBRANCH  20  27
ENDBRANCH  13  15
ENDBRANCH   3  13
ENDBRANCH   1   7
BRANCH   1  31
ATOM     30  O3  UNK     0     -37.285  14.073 -24.759  0.00  0.00    +0.000 OA
ATOM     31  C22 UNK     0     -38.830  14.229 -26.666  0.00  0.00    +0.000 C 
ATOM     32  C26 UNK     0     -37.778  13.561 -27.561  0.00  0.00    +0.000 C 
ATOM     33  C27 UNK     0     -38.650  13.919 -25.170  0.00  0.00    +0.000 C 
ATOM     34  C29 UNK     0     -36.369  13.688 -26.976  0.00  0.00    +0.000 C 
ATOM     35  C30 UNK     0     -36.345  13.296 -25.497  0.00  0.00    +0.000 C 
BRANCH  32  36
ATOM     36  O7  UNK     0     -38.079  12.179 -27.719  0.00  0.00    +0.000 OA
ATOM     37  H73 UNK     0     -38.546  12.075 -28.565  0.00  0.00    +0.000 HD
ENDBRANCH  32  36
BRANCH  34  38
ATOM     38  O9  UNK     0     -35.911  15.032 -27.123  0.00  0.00    +0.000 OA
ATOM     39  H74 UNK     0     -34.940  15.007 -27.180  0.00  0.00    +0.000 HD
ENDBRANCH  34  38
BRANCH  35  40
ATOM     40  O4  UNK     0     -35.026  13.505 -24.997  0.00  0.00    +0.000 OA
BRANCH  40  42
ATOM     41  O8  UNK     0     -32.864  16.455 -25.457  0.00  0.00    +0.000 OA
ATOM     42  C32 UNK     0     -34.684  14.890 -25.000  0.00  0.00    +0.000 C 
ATOM     43  C34 UNK     0     -34.769  15.402 -23.561  0.00  0.00    +0.000 C 
ATOM     44  C36 UNK     0     -33.276  15.089 -25.577  0.00  0.00    +0.000 C 
ATOM     45  C40 UNK     0     -34.201  16.816 -23.460  0.00  0.00    +0.000 C 
ATOM     46  C42 UNK     0     -32.818  16.917 -24.106  0.00  0.00    +0.000 C 
BRANCH  43  47
ATOM     47  O12 UNK     0     -36.146  15.423 -23.175  0.00  0.00    +0.000 OA
ATOM     48  H81 UNK     0     -36.195  15.667 -22.235  0.00  0.00    +0.000 HD
ENDBRANCH  43  47
BRANCH  45  49
ATOM     49  O15 UNK     0     -34.135  17.201 -22.091  0.00  0.00    +0.000 OA
ATOM     50  H84 UNK     0     -34.570  16.504 -21.570  0.00  0.00    +0.000 HD
ENDBRANCH  45  49
BRANCH  46  51
ATOM     51  O16 UNK     0     -31.808  16.258 -23.344  0.00  0.00    +0.000 OA
ATOM     52  H85 UNK     0     -31.465  16.902 -22.703  0.00  0.00    +0.000 HD
ENDBRANCH  46  51
BRANCH  44  53
ATOM     53  C43 UNK     0     -33.207  14.730 -27.059  0.00  0.00    +0.000 C 
BRANCH  53  54
ATOM     54  O17 UNK     0     -33.245  15.926 -27.814  0.00  0.00    +0.000 OA
ATOM     55  H86 UNK     0     -33.312  15.673 -28.750  0.00  0.00    +0.000 HD
ENDBRANCH  53  54
ENDBRANCH  44  53
ENDBRANCH  40  42
ENDBRANCH  35  40
BRANCH  33  56
ATOM     56  C39 UNK     0     -39.203  12.557 -24.755  0.00  0.00    +0.000 C 
BRANCH  56  57
ATOM     57  O14 UNK     0     -39.869  12.701 -23.514  0.00  0.00    +0.000 OA
ATOM     58  H83 UNK     0     -39.599  13.557 -23.142  0.00  0.00    +0.000 HD
ENDBRANCH  56  57
ENDBRANCH  33  56
ENDBRANCH   1  31
TORSDOF 22
ENDMDL
MODEL 3
REMARK VINA RESULT:    -1.123      1.937      5.076
REMARK INTER + INTRA:           8.472
REMARK INTER:                   4.196
REMARK INTRA:                   4.276
REMARK UNBOUND:                10.612
REMARK  Name = data/B/Ligand/Acarbose.pdb
REMARK  23 active torsions:
REMARK  status: ('A' for Active; 'I' for Inactive)
REMARK    1  A    between atoms: O1_1  and  C22_22
REMARK    2  A    between atoms: O1_1  and  C25_25
REMARK    3  A    between atoms: O4_4  and  C30_30
REMARK    4  A    between atoms: O4_4  and  C32_32
REMARK    5  A    between atoms: O5_5  and  C21_21
REMARK    6  A    between atoms: O6_6  and  C23_23
REMARK    7  A    between atoms: O7_7  and  C26_26
REMARK    8  A    between atoms: O9_9  and  C29_29
REMARK    9  A    between atoms: O10_10  and  C31_31
REMARK   10  A    between atoms: O11_11  and  C33_33
REMARK   11  A    between atoms: O12_12  and  C34_34
REMARK   12  A    between atoms: O13_13  and  C38_38
REMARK   13  A    between atoms: O14_14  and  C39_39
REMARK   14  A    between atoms: O15_15  and  C40_40
REMARK   15  A    between atoms: O16_16  and  C42_42
REMARK   16  A    between atoms: O17_17  and  C43_43
REMARK   17  A    between atoms: O18_18  and  C44_44
REMARK   18  A    between atoms: N19_19  and  C20_20
REMARK   19  A    between atoms: N19_19  and  C28_28
REMARK   20  A    between atoms: C24_24  and  C35_35
REMARK   21  A    between atoms: C27_27  and  C39_39
REMARK   22  A    between atoms: C36_36  and  C43_43
REMARK   23  A    between atoms: C41_41  and  C44_44
REMARK                            x       y       z     vdW  Elec       q    Type
REMARK                         _______ _______ _______ _____ _____    ______ ____
ROOT
ATOM      1  O1  UNK     0     -35.430  18.418 -25.000  0.00  0.00    +0.000 OA
ENDROOT
BRANCH   1   7
ATOM      2  O2  UNK     0     -37.201  17.409 -26.151  0.00  0.00    +0.000 OA
ATOM      3  C20 UNK     0     -39.338  16.804 -25.073  0.00  0.00    +0.000 C 
ATOM      4  C21 UNK     0     -38.918  17.629 -23.841  0.00  0.00    +0.000 C 
ATOM      5  C23 UNK     0     -37.403  17.838 -23.765  0.00  0.00    +0.000 C 
ATOM      6  C24 UNK     0     -38.610  17.246 -26.361  0.00  0.00    +0.000 C 
ATOM      7  C25 UNK     0     -36.848  18.315 -25.108  0.00  0.00    +0.000 C 
ATOM      8  C35 UNK     0     -39.215  18.495 -27.005  0.00  0.00    +0.000 C 
BRANCH   4   9
ATOM      9  O5  UNK     0     -39.546  18.910 -23.880  0.00  0.00    +0.000 OA
ATOM     10  H70 UNK     0     -38.866  19.576 -23.682  0.00  0.00    +0.000 HD
ENDBRANCH   4   9
BRANCH   5  11
ATOM     11  O6  UNK     0     -36.761  16.614 -23.411  0.00  0.00    +0.000 OA
ATOM     12  H72 UNK     0     -36.826  16.518 -22.445  0.00  0.00    +0.000 HD
ENDBRANCH   5  11
BRANCH   3  13
ATOM     13  N19 UNK     0     -39.041  15.385 -24.831  0.00  0.00    +0.000 NA
ATOM     14  H55 UNK     0     -39.735  14.987 -24.201  0.00  0.00    +0.000 HD
BRANCH  13  15
ATOM     15  C28 UNK     0     -39.007  14.643 -26.095  0.00  0.00    +0.000 C 
ATOM     16  C31 UNK     0     -39.624  13.238 -25.922  0.00  0.00    +0.000 C 
ATOM     17  C33 UNK     0     -39.355  12.358 -27.150  0.00  0.00    +0.000 C 
ATOM     18  C37 UNK     0     -37.618  14.611 -26.676  0.00  0.00    +0.000 C 
ATOM     19  C38 UNK     0     -37.852  12.246 -27.471  0.00  0.00    +0.000 C 
ATOM     20  C41 UNK     0     -37.084  13.536 -27.284  0.00  0.00    +0.000 C 
BRANCH  16  21
ATOM     21  O10 UNK     0     -39.125  12.589 -24.753  0.00  0.00    +0.000 OA
ATOM     22  H77 UNK     0     -38.652  11.790 -25.041  0.00  0.00    +0.000 HD
ENDBRANCH  16  21
BRANCH  17  23
ATOM     23  O11 UNK     0     -40.018  12.907 -28.288  0.00  0.00    +0.000 OA
ATOM     24  H80 UNK     0     -40.414  13.753 -28.018  0.00  0.00    +0.000 HD
ENDBRANCH  17  23
BRANCH  19  25
ATOM     25  O13 UNK     0     -37.255  11.261 -26.630  0.00  0.00    +0.000 OA
ATOM     26  H82 UNK     0     -37.544  11.439 -25.718  0.00  0.00    +0.000 HD
ENDBRANCH  19  25
BRANCH  20  27
ATOM     27  C44 UNK     0     -35.688  13.564 -27.836  0.00  0.00    +0.000 C 
BRANCH  27  28
ATOM     28  O18 UNK     0     -34.851  14.312 -26.976  0.00  0.00    +0.000 OA
ATOM     29  H87 UNK     0     -33.958  14.299 -27.359  0.00  0.00    +0.000 HD
ENDBRANCH  27  28
ENDBRANCH  20  27
ENDBRANCH  13  15
ENDBRANCH   3  13
ENDBRANCH   1   7
BRANCH   1  31
ATOM     30  O3  UNK     0     -33.284  17.304 -23.255  0.00  0.00    +0.000 OA
ATOM     31  C22 UNK     0     -34.799  17.147 -25.185  0.00  0.00    +0.000 C 
ATOM     32  C26 UNK     0     -33.607  17.353 -26.127  0.00  0.00    +0.000 C 
ATOM     33  C27 UNK     0     -34.404  16.597 -23.804  0.00  0.00    +0.000 C 
ATOM     34  C29 UNK     0     -32.425  18.015 -25.413  0.00  0.00    +0.000 C 
ATOM     35  C30 UNK     0     -32.123  17.324 -24.082  0.00  0.00    +0.000 C 
BRANCH  32  36
ATOM     36  O7  UNK     0     -33.174  16.100 -26.649  0.00  0.00    +0.000 OA
ATOM     37  H73 UNK     0     -33.968  15.581 -26.862  0.00  0.00    +0.000 HD
ENDBRANCH  32  36
BRANCH  34  38
ATOM     38  O9  UNK     0     -32.719  19.393 -25.182  0.00  0.00    +0.000 OA
ATOM     39  H74 UNK     0     -31.883  19.839 -24.963  0.00  0.00    +0.000 HD
ENDBRANCH  34  38
BRANCH  35  40
ATOM     40  O4  UNK     0     -31.066  18.031 -23.437  0.00  0.00    +0.000 OA
BRANCH  40  42
ATOM     41  O8  UNK     0     -31.755  16.118 -20.363  0.00  0.00    +0.000 OA
ATOM     42  C32 UNK     0     -31.011  17.726 -22.045  0.00  0.00    +0.000 C 
ATOM     43  C34 UNK     0     -31.713  18.853 -21.285  0.00  0.00    +0.000 C 
ATOM     44  C36 UNK     0     -31.679  16.372 -21.770  0.00  0.00    +0.000 C 
ATOM     45  C40 UNK     0     -31.886  18.481 -19.813  0.00  0.00    +0.000 C 
ATOM     46  C42 UNK     0     -32.514  17.096 -19.650  0.00  0.00    +0.000 C 
BRANCH  43  47
ATOM     47  O12 UNK     0     -30.903  20.028 -21.378  0.00  0.00    +0.000 OA
ATOM     48  H81 UNK     0     -31.482  20.805 -21.302  0.00  0.00    +0.000 HD
ENDBRANCH  43  47
BRANCH  45  49
ATOM     49  O15 UNK     0     -32.688  19.466 -19.170  0.00  0.00    +0.000 OA
ATOM     50  H84 UNK     0     -33.486  19.594 -19.712  0.00  0.00    +0.000 HD
ENDBRANCH  45  49
BRANCH  46  51
ATOM     51  O16 UNK     0     -33.895  17.075 -20.009  0.00  0.00    +0.000 OA
ATOM     52  H85 UNK     0     -34.277  17.925 -19.732  0.00  0.00    +0.000 HD
ENDBRANCH  46  51
BRANCH  44  53
ATOM     53  C43 UNK     0     -30.903  15.213 -22.392  0.00  0.00    +0.000 C 
BRANCH  53  54
ATOM     54  O17 UNK     0     -31.447  14.943 -23.670  0.00  0.00    +0.000 OA
ATOM     55  H86 UNK     0     -32.145  15.600 -23.830  0.00  0.00    +0.000 HD
ENDBRANCH  53  54
ENDBRANCH  44  53
ENDBRANCH  40  42
ENDBRANCH  35  40
BRANCH  33  56
ATOM     56  C39 UNK     0     -34.167  15.088 -23.788  0.00  0.00    +0.000 C 
BRANCH  56  57
ATOM     57  O14 UNK     0     -35.282  14.451 -24.386  0.00  0.00    +0.000 OA
ATOM     58  H83 UNK     0     -35.471  14.922 -25.214  0.00  0.00    +0.000 HD
ENDBRANCH  56  57
ENDBRANCH  33  56
ENDBRANCH   1  31
TORSDOF 22
ENDMDL
MODEL 4
REMARK VINA RESULT:    -0.486      2.584      8.085
REMARK INTER + INTRA:           9.686
REMARK INTER:                   0.961
REMARK INTRA:                   8.725
REMARK UNBOUND:                10.612
REMARK  Name = data/B/Ligand/Acarbose.pdb
REMARK  23 active torsions:
REMARK  status: ('A' for Active; 'I' for Inactive)
REMARK    1  A    between atoms: O1_1  and  C22_22
REMARK    2  A    between atoms: O1_1  and  C25_25
REMARK    3  A    between atoms: O4_4  and  C30_30
REMARK    4  A    between atoms: O4_4  and  C32_32
REMARK    5  A    between atoms: O5_5  and  C21_21
REMARK    6  A    between atoms: O6_6  and  C23_23
REMARK    7  A    between atoms: O7_7  and  C26_26
REMARK    8  A    between atoms: O9_9  and  C29_29
REMARK    9  A    between atoms: O10_10  and  C31_31
REMARK   10  A    between atoms: O11_11  and  C33_33
REMARK   11  A    between atoms: O12_12  and  C34_34
REMARK   12  A    between atoms: O13_13  and  C38_38
REMARK   13  A    between atoms: O14_14  and  C39_39
REMARK   14  A    between atoms: O15_15  and  C40_40
REMARK   15  A    between atoms: O16_16  and  C42_42
REMARK   16  A    between atoms: O17_17  and  C43_43
REMARK   17  A    between atoms: O18_18  and  C44_44
REMARK   18  A    between atoms: N19_19  and  C20_20
REMARK   19  A    between atoms: N19_19  and  C28_28
REMARK   20  A    between atoms: C24_24  and  C35_35
REMARK   21  A    between atoms: C27_27  and  C39_39
REMARK   22  A    between atoms: C36_36  and  C43_43
REMARK   23  A    between atoms: C41_41  and  C44_44
REMARK                            x       y       z     vdW  Elec       q    Type
REMARK                         _______ _______ _______ _____ _____    ______ ____
ROOT
ATOM      1  O1  UNK     0     -36.349  16.232 -24.026  0.00  0.00    +0.000 OA
ENDROOT
BRANCH   1   7
ATOM      2  O2  UNK     0     -34.347  17.132 -24.842  0.00  0.00    +0.000 OA
ATOM      3  C20 UNK     0     -32.186  16.890 -23.673  0.00  0.00    +0.000 C 
ATOM      4  C21 UNK     0     -32.834  15.841 -22.749  0.00  0.00    +0.000 C 
ATOM      5  C23 UNK     0     -34.360  15.956 -22.711  0.00  0.00    +0.000 C 
ATOM      6  C24 UNK     0     -32.927  17.037 -25.019  0.00  0.00    +0.000 C 
ATOM      7  C25 UNK     0     -34.938  16.049 -24.125  0.00  0.00    +0.000 C 
ATOM      8  C35 UNK     0     -32.574  15.946 -26.032  0.00  0.00    +0.000 C 
BRANCH   4   9
ATOM      9  O5  UNK     0     -32.495  14.529 -23.198  0.00  0.00    +0.000 OA
ATOM     10  H70 UNK     0     -33.157  14.265 -23.859  0.00  0.00    +0.000 HD
ENDBRANCH   4   9
BRANCH   5  11
ATOM     11  O6  UNK     0     -34.741  17.123 -21.982  0.00  0.00    +0.000 OA
ATOM     12  H72 UNK     0     -35.711  17.125 -21.921  0.00  0.00    +0.000 HD
ENDBRANCH   5  11
BRANCH   3  13
ATOM     13  N19 UNK     0     -32.182  18.195 -22.996  0.00  0.00    +0.000 NA
ATOM     14  H55 UNK     0     -33.129  18.569 -22.956  0.00  0.00    +0.000 HD
BRANCH  13  15
ATOM     15  C28 UNK     0     -31.619  18.075 -21.648  0.00  0.00    +0.000 C 
ATOM     16  C31 UNK     0     -32.598  17.336 -20.709  0.00  0.00    +0.000 C 
ATOM     17  C33 UNK     0     -32.148  17.439 -19.245  0.00  0.00    +0.000 C 
ATOM     18  C37 UNK     0     -31.186  19.415 -21.113  0.00  0.00    +0.000 C 
ATOM     19  C38 UNK     0     -31.970  18.899 -18.789  0.00  0.00    +0.000 C 
ATOM     20  C41 UNK     0     -31.350  19.800 -19.834  0.00  0.00    +0.000 C 
BRANCH  16  21
ATOM     21  O10 UNK     0     -33.926  17.843 -20.835  0.00  0.00    +0.000 OA
ATOM     22  H77 UNK     0     -34.449  17.480 -20.101  0.00  0.00    +0.000 HD
ENDBRANCH  16  21
BRANCH  17  23
ATOM     23  O11 UNK     0     -30.904  16.760 -19.078  0.00  0.00    +0.000 OA
ATOM     24  H80 UNK     0     -30.725  16.266 -19.896  0.00  0.00    +0.000 HD
ENDBRANCH  17  23
BRANCH  19  25
ATOM     25  O13 UNK     0     -33.240  19.450 -18.441  0.00  0.00    +0.000 OA
ATOM     26  H82 UNK     0     -33.398  20.213 -19.023  0.00  0.00    +0.000 HD
ENDBRANCH  19  25
BRANCH  20  27
ATOM     27  C44 UNK     0     -30.903  21.155 -19.363  0.00  0.00    +0.000 C 
BRANCH  27  28
ATOM     28  O18 UNK     0     -31.456  22.154 -20.197  0.00  0.00    +0.000 OA
ATOM     29  H87 UNK     0     -32.288  21.802 -20.557  0.00  0.00    +0.000 HD
ENDBRANCH  27  28
ENDBRANCH  20  27
ENDBRANCH  13  15
ENDBRANCH   3  13
ENDBRANCH   1   7
BRANCH   1  31
ATOM     30  O3  UNK     0     -39.153  15.773 -24.929  0.00  0.00    +0.000 OA
ATOM     31  C22 UNK     0     -36.901  16.703 -25.260  0.00  0.00    +0.000 C 
ATOM     32  C26 UNK     0     -36.627  15.638 -26.328  0.00  0.00    +0.000 C 
ATOM     33  C27 UNK     0     -38.398  16.986 -25.044  0.00  0.00    +0.000 C 
ATOM     34  C29 UNK     0     -37.561  14.433 -26.184  0.00  0.00    +0.000 C 
ATOM     35  C30 UNK     0     -39.017  14.876 -26.029  0.00  0.00    +0.000 C 
BRANCH  32  36
ATOM     36  O7  UNK     0     -36.803  16.192 -27.627  0.00  0.00    +0.000 OA
ATOM     37  H73 UNK     0     -36.238  16.981 -27.689  0.00  0.00    +0.000 HD
ENDBRANCH  32  36
BRANCH  34  38
ATOM     38  O9  UNK     0     -37.171  13.661 -25.047  0.00  0.00    +0.000 OA
ATOM     39  H74 UNK     0     -36.213  13.776 -24.928  0.00  0.00    +0.000 HD
ENDBRANCH  34  38
BRANCH  35  40
ATOM     40  O4  UNK     0     -39.821  13.716 -25.827  0.00  0.00    +0.000 OA
BRANCH  40  42
ATOM     41  O8  UNK     0     -37.678  11.058 -27.217  0.00  0.00    +0.000 OA
ATOM     42  C32 UNK     0     -39.449  12.665 -26.717  0.00  0.00    +0.000 C 
ATOM     43  C34 UNK     0     -39.312  13.260 -28.120  0.00  0.00    +0.000 C 
ATOM     44  C36 UNK     0     -38.136  12.019 -26.258  0.00  0.00    +0.000 C 
ATOM     45  C40 UNK     0     -38.701  12.239 -29.078  0.00  0.00    +0.000 C 
ATOM     46  C42 UNK     0     -37.425  11.620 -28.506  0.00  0.00    +0.000 C 
BRANCH  43  47
ATOM     47  O12 UNK     0     -40.617  13.614 -28.585  0.00  0.00    +0.000 OA
ATOM     48  H81 UNK     0     -41.217  13.640 -27.820  0.00  0.00    +0.000 HD
ENDBRANCH  43  47
BRANCH  45  49
ATOM     49  O15 UNK     0     -38.428  12.868 -30.326  0.00  0.00    +0.000 OA
ATOM     50  H84 UNK     0     -37.505  12.666 -30.560  0.00  0.00    +0.000 HD
ENDBRANCH  45  49
BRANCH  46  51
ATOM     51  O16 UNK     0     -36.331  12.536 -28.490  0.00  0.00    +0.000 OA
ATOM     52  H85 UNK     0     -36.556  13.262 -29.096  0.00  0.00    +0.000 HD
ENDBRANCH  46  51
BRANCH  44  53
ATOM     53  C43 UNK     0     -38.292  11.284 -24.929  0.00  0.00    +0.000 C 
BRANCH  53  54
ATOM     54  O17 UNK     0     -39.543  11.632 -24.367  0.00  0.00    +0.000 OA
ATOM     55  H86 UNK     0     -39.363  12.126 -23.549  0.00  0.00    +0.000 HD
ENDBRANCH  53  54
ENDBRANCH  44  53
ENDBRANCH  40  42
ENDBRANCH  35  40
BRANCH  33  56
ATOM     56  C39 UNK     0     -39.004  17.919 -26.090  0.00  0.00    +0.000 C 
BRANCH  56  57
ATOM     57  O14 UNK     0     -38.877  19.252 -25.631  0.00  0.00    +0.000 OA
ATOM     58  H83 UNK     0     -38.683  19.211 -24.680  0.00  0.00    +0.000 HD
ENDBRANCH  56  57
ENDBRANCH  33  56
ENDBRANCH   1  31
TORSDOF 22
ENDMDL
MODEL 5
REMARK VINA RESULT:    -0.088      1.095      2.177
REMARK INTER + INTRA:          10.445
REMARK INTER:                   0.567
REMARK INTRA:                   9.878
REMARK UNBOUND:                10.612
REMARK  Name = data/B/Ligand/Acarbose.pdb
REMARK  23 active torsions:
REMARK  status: ('A' for Active; 'I' for Inactive)
REMARK    1  A    between atoms: O1_1  and  C22_22
REMARK    2  A    between atoms: O1_1  and  C25_25
REMARK    3  A    between atoms: O4_4  and  C30_30
REMARK    4  A    between atoms: O4_4  and  C32_32
REMARK    5  A    between atoms: O5_5  and  C21_21
REMARK    6  A    between atoms: O6_6  and  C23_23
REMARK    7  A    between atoms: O7_7  and  C26_26
REMARK    8  A    between atoms: O9_9  and  C29_29
REMARK    9  A    between atoms: O10_10  and  C31_31
REMARK   10  A    between atoms: O11_11  and  C33_33
REMARK   11  A    between atoms: O12_12  and  C34_34
REMARK   12  A    between atoms: O13_13  and  C38_38
REMARK   13  A    between atoms: O14_14  and  C39_39
REMARK   14  A    between atoms: O15_15  and  C40_40
REMARK   15  A    between atoms: O16_16  and  C42_42
REMARK   16  A    between atoms: O17_17  and  C43_43
REMARK   17  A    between atoms: O18_18  and  C44_44
REMARK   18  A    between atoms: N19_19  and  C20_20
REMARK   19  A    between atoms: N19_19  and  C28_28
REMARK   20  A    between atoms: C24_24  and  C35_35
REMARK   21  A    between atoms: C27_27  and  C39_39
REMARK   22  A    between atoms: C36_36  and  C43_43
REMARK   23  A    between atoms: C41_41  and  C44_44
REMARK                            x       y       z     vdW  Elec       q    Type
REMARK                         _______ _______ _______ _____ _____    ______ ____
ROOT
ATOM      1  O1  UNK     0     -33.369  14.794 -24.122  0.00  0.00    +0.000 OA
ENDROOT
BRANCH   1   7
ATOM      2  O2  UNK     0     -33.483  14.467 -26.438  0.00  0.00    +0.000 OA
ATOM      3  C20 UNK     0     -35.612  14.170 -27.653  0.00  0.00    +0.000 C 
ATOM      4  C21 UNK     0     -36.366  14.615 -26.386  0.00  0.00    +0.000 C 
ATOM      5  C23 UNK     0     -35.526  14.451 -25.116  0.00  0.00    +0.000 C 
ATOM      6  C24 UNK     0     -34.154  14.677 -27.687  0.00  0.00    +0.000 C 
ATOM      7  C25 UNK     0     -34.128  15.043 -25.304  0.00  0.00    +0.000 C 
ATOM      8  C35 UNK     0     -34.026  16.134 -28.138  0.00  0.00    +0.000 C 
BRANCH   4   9
ATOM      9  O5  UNK     0     -36.738  15.989 -26.503  0.00  0.00    +0.000 OA
ATOM     10  H70 UNK     0     -36.375  16.320 -27.342  0.00  0.00    +0.000 HD
ENDBRANCH   4   9
BRANCH   5  11
ATOM     11  O6  UNK     0     -35.399  13.067 -24.794  0.00  0.00    +0.000 OA
ATOM     12  H72 UNK     0     -34.654  12.714 -25.311  0.00  0.00    +0.000 HD
ENDBRANCH   5  11
BRANCH   3  13
ATOM     13  N19 UNK     0     -35.597  12.702 -27.718  0.00  0.00    +0.000 NA
ATOM     14  H55 UNK     0     -35.139  12.321 -26.892  0.00  0.00    +0.000 HD
BRANCH  13  15
ATOM     15  C28 UNK     0     -36.961  12.178 -27.837  0.00  0.00    +0.000 C 
ATOM     16  C31 UNK     0     -37.859  13.160 -28.620  0.00  0.00    +0.000 C 
ATOM     17  C33 UNK     0     -39.338  12.761 -28.522  0.00  0.00    +0.000 C 
ATOM     18  C37 UNK     0     -37.526  11.806 -26.491  0.00  0.00    +0.000 C 
ATOM     19  C38 UNK     0     -39.817  12.646 -27.062  0.00  0.00    +0.000 C 
ATOM     20  C41 UNK     0     -38.804  12.023 -26.128  0.00  0.00    +0.000 C 
BRANCH  16  21
ATOM     21  O10 UNK     0     -37.697  14.500 -28.155  0.00  0.00    +0.000 OA
ATOM     22  H77 UNK     0     -37.927  14.512 -27.211  0.00  0.00    +0.000 HD
ENDBRANCH  16  21
BRANCH  17  23
ATOM     23  O11 UNK     0     -39.537  11.501 -29.161  0.00  0.00    +0.000 OA
ATOM     24  H80 UNK     0     -39.922  10.895 -28.504  0.00  0.00    +0.000 HD
ENDBRANCH  17  23
BRANCH  19  25
ATOM     25  O13 UNK     0     -40.131  13.944 -26.557  0.00  0.00    +0.000 OA
ATOM     26  H82 UNK     0     -40.934  14.250 -27.013  0.00  0.00    +0.000 HD
ENDBRANCH  19  25
BRANCH  20  27
ATOM     27  C44 UNK     0     -39.305  11.636 -24.766  0.00  0.00    +0.000 C 
BRANCH  27  28
ATOM     28  O18 UNK     0     -39.506  12.799 -23.986  0.00  0.00    +0.000 OA
ATOM     29  H87 UNK     0     -40.323  13.221 -24.303  0.00  0.00    +0.000 HD
ENDBRANCH  27  28
ENDBRANCH  20  27
ENDBRANCH  13  15
ENDBRANCH   3  13
ENDBRANCH   1   7
BRANCH   1  31
ATOM     30  O3  UNK     0     -34.533  16.824 -22.274  0.00  0.00    +0.000 OA
ATOM     31  C22 UNK     0     -32.698  15.976 -23.674  0.00  0.00    +0.000 C 
ATOM     32  C26 UNK     0     -32.977  17.084 -24.697  0.00  0.00    +0.000 C 
ATOM     33  C27 UNK     0     -33.196  16.308 -22.257  0.00  0.00    +0.000 C 
ATOM     34  C29 UNK     0     -34.396  17.643 -24.558  0.00  0.00    +0.000 C 
ATOM     35  C30 UNK     0     -34.722  17.971 -23.100  0.00  0.00    +0.000 C 
BRANCH  32  36
ATOM     36  O7  UNK     0     -32.052  18.152 -24.524  0.00  0.00    +0.000 OA
ATOM     37  H73 UNK     0     -32.561  18.947 -24.290  0.00  0.00    +0.000 HD
ENDBRANCH  32  36
BRANCH  34  38
ATOM     38  O9  UNK     0     -35.335  16.690 -25.056  0.00  0.00    +0.000 OA
ATOM     39  H74 UNK     0     -36.124  16.731 -24.489  0.00  0.00    +0.000 HD
ENDBRANCH  34  38
BRANCH  35  40
ATOM     40  O4  UNK     0     -36.075  18.416 -23.030  0.00  0.00    +0.000 OA
BRANCH  40  42
ATOM     41  O8  UNK     0     -37.995  19.291 -26.053  0.00  0.00    +0.000 OA
ATOM     42  C32 UNK     0     -36.762  18.182 -24.258  0.00  0.00    +0.000 C 
ATOM     43  C34 UNK     0     -37.977  17.301 -23.961  0.00  0.00    +0.000 C 
ATOM     44  C36 UNK     0     -37.185  19.513 -24.894  0.00  0.00    +0.000 C 
ATOM     45  C40 UNK     0     -38.878  17.197 -25.191  0.00  0.00    +0.000 C 
ATOM     46  C42 UNK     0     -39.199  18.574 -25.774  0.00  0.00    +0.000 C 
BRANCH  43  47
ATOM     47  O12 UNK     0     -37.508  15.995 -23.614  0.00  0.00    +0.000 OA
ATOM     48  H81 UNK     0     -38.235  15.364 -23.749  0.00  0.00    +0.000 HD
ENDBRANCH  43  47
BRANCH  45  49
ATOM     49  O15 UNK     0     -40.078  16.517 -24.840  0.00  0.00    +0.000 OA
ATOM     50  H84 UNK     0     -40.310  16.783 -23.933  0.00  0.00    +0.000 HD
ENDBRANCH  45  49
BRANCH  46  51
ATOM     51  O16 UNK     0     -40.094  19.321 -24.952  0.00  0.00    +0.000 OA
ATOM     52  H85 UNK     0     -40.518  18.693 -24.345  0.00  0.00    +0.000 HD
ENDBRANCH  46  51
BRANCH  44  53
ATOM     53  C43 UNK     0     -35.983  20.343 -25.341  0.00  0.00    +0.000 C 
BRANCH  53  54
ATOM     54  O17 UNK     0     -36.366  21.705 -25.377  0.00  0.00    +0.000 OA
ATOM     55  H86 UNK     0     -36.571  21.970 -24.465  0.00  0.00    +0.000 HD
ENDBRANCH  53  54
ENDBRANCH  44  53
ENDBRANCH  40  42
ENDBRANCH  35  40
BRANCH  33  56
ATOM     56  C39 UNK     0     -32.258  17.226 -21.476  0.00  0.00    +0.000 C 
BRANCH  56  57
ATOM     57  O14 UNK     0     -30.933  17.004 -21.923  0.00  0.00    +0.000 OA
ATOM     58  H83 UNK     0     -30.695  16.095 -21.675  0.00  0.00    +0.000 HD
ENDBRANCH  56  57
ENDBRANCH  33  56
ENDBRANCH   1  31
TORSDOF 22
ENDMDL
MODEL 6
REMARK VINA RESULT:     0.329      1.778      4.783
REMARK INTER + INTRA:          11.240
REMARK INTER:                   4.476
REMARK INTRA:                   6.764
REMARK UNBOUND:                10.612
REMARK  Name = data/B/Ligand/Acarbose.pdb
REMARK  23 active torsions:
REMARK  status: ('A' for Active; 'I' for Inactive)
REMARK    1  A    between atoms: O1_1  and  C22_22
REMARK    2  A    between atoms: O1_1  and  C25_25
REMARK    3  A    between atoms: O4_4  and  C30_30
REMARK    4  A    between atoms: O4_4  and  C32_32
REMARK    5  A    between atoms: O5_5  and  C21_21
REMARK    6  A    between atoms: O6_6  and  C23_23
REMARK    7  A    between atoms: O7_7  and  C26_26
REMARK    8  A    between atoms: O9_9  and  C29_29
REMARK    9  A    between atoms: O10_10  and  C31_31
REMARK   10  A    between atoms: O11_11  and  C33_33
REMARK   11  A    between atoms: O12_12  and  C34_34
REMARK   12  A    between atoms: O13_13  and  C38_38
REMARK   13  A    between atoms: O14_14  and  C39_39
REMARK   14  A    between atoms: O15_15  and  C40_40
REMARK   15  A    between atoms: O16_16  and  C42_42
REMARK   16  A    between atoms: O17_17  and  C43_43
REMARK   17  A    between atoms: O18_18  and  C44_44
REMARK   18  A    between atoms: N19_19  and  C20_20
REMARK   19  A    between atoms: N19_19  and  C28_28
REMARK   20  A    between atoms: C24_24  and  C35_35
REMARK   21  A    between atoms: C27_27  and  C39_39
REMARK   22  A    between atoms: C36_36  and  C43_43
REMARK   23  A    between atoms: C41_41  and  C44_44
REMARK                            x       y       z     vdW  Elec       q    Type
REMARK                         _______ _______ _______ _____ _____    ______ ____
ROOT
ATOM      1  O1  UNK     0     -35.296  19.019 -24.746  0.00  0.00    +0.000 OA
ENDROOT
BRANCH   1   7
ATOM      2  O2  UNK     0     -37.155  18.636 -26.118  0.00  0.00    +0.000 OA
ATOM      3  C20 UNK     0     -38.851  16.908 -25.635  0.00  0.00    +0.000 C 
ATOM      4  C21 UNK     0     -38.243  16.742 -24.229  0.00  0.00    +0.000 C 
ATOM      5  C23 UNK     0     -36.799  17.245 -24.152  0.00  0.00    +0.000 C 
ATOM      6  C24 UNK     0     -38.537  18.284 -26.261  0.00  0.00    +0.000 C 
ATOM      7  C25 UNK     0     -36.669  18.636 -24.776  0.00  0.00    +0.000 C 
ATOM      8  C35 UNK     0     -39.442  19.407 -25.751  0.00  0.00    +0.000 C 
BRANCH   4   9
ATOM      9  O5  UNK     0     -39.021  17.468 -23.278  0.00  0.00    +0.000 OA
ATOM     10  H70 UNK     0     -39.336  18.279 -23.715  0.00  0.00    +0.000 HD
ENDBRANCH   4   9
BRANCH   5  11
ATOM     11  O6  UNK     0     -35.935  16.347 -24.849  0.00  0.00    +0.000 OA
ATOM     12  H72 UNK     0     -35.612  15.693 -24.204  0.00  0.00    +0.000 HD
ENDBRANCH   5  11
BRANCH   3  13
ATOM     13  N19 UNK     0     -38.321  15.860 -26.519  0.00  0.00    +0.000 NA
ATOM     14  H55 UNK     0     -37.304  15.835 -26.458  0.00  0.00    +0.000 HD
BRANCH  13  15
ATOM     15  C28 UNK     0     -38.890  14.555 -26.171  0.00  0.00    +0.000 C 
ATOM     16  C31 UNK     0     -37.855  13.688 -25.421  0.00  0.00    +0.000 C 
ATOM     17  C33 UNK     0     -38.336  12.237 -25.290  0.00  0.00    +0.000 C 
ATOM     18  C37 UNK     0     -39.470  13.869 -27.380  0.00  0.00    +0.000 C 
ATOM     19  C38 UNK     0     -38.673  11.606 -26.654  0.00  0.00    +0.000 C 
ATOM     20  C41 UNK     0     -39.367  12.548 -27.614  0.00  0.00    +0.000 C 
BRANCH  16  21
ATOM     21  O10 UNK     0     -36.585  13.710 -26.073  0.00  0.00    +0.000 OA
ATOM     22  H77 UNK     0     -36.690  13.273 -26.934  0.00  0.00    +0.000 HD
ENDBRANCH  16  21
BRANCH  17  23
ATOM     23  O11 UNK     0     -39.506  12.192 -24.473  0.00  0.00    +0.000 OA
ATOM     24  H80 UNK     0     -39.613  13.068 -24.064  0.00  0.00    +0.000 HD
ENDBRANCH  17  23
BRANCH  19  25
ATOM     25  O13 UNK     0     -37.474  11.155 -27.282  0.00  0.00    +0.000 OA
ATOM     26  H82 UNK     0     -36.769  11.169 -26.613  0.00  0.00    +0.000 HD
ENDBRANCH  19  25
BRANCH  20  27
ATOM     27  C44 UNK     0     -39.961  11.923 -28.844  0.00  0.00    +0.000 C 
BRANCH  27  28
ATOM     28  O18 UNK     0     -39.166  12.243 -29.970  0.00  0.00    +0.000 OA
ATOM     29  H87 UNK     0     -38.328  11.758 -29.878  0.00  0.00    +0.000 HD
ENDBRANCH  27  28
ENDBRANCH  20  27
ENDBRANCH  13  15
ENDBRANCH   3  13
ENDBRANCH   1   7
BRANCH   1  31
ATOM     30  O3  UNK     0     -33.538  16.630 -25.056  0.00  0.00    +0.000 OA
ATOM     31  C22 UNK     0     -34.624  18.645 -25.954  0.00  0.00    +0.000 C 
ATOM     32  C26 UNK     0     -33.267  19.359 -25.970  0.00  0.00    +0.000 C 
ATOM     33  C27 UNK     0     -34.512  17.111 -25.991  0.00  0.00    +0.000 C 
ATOM     34  C29 UNK     0     -32.265  18.699 -25.019  0.00  0.00    +0.000 C 
ATOM     35  C30 UNK     0     -32.233  17.181 -25.212  0.00  0.00    +0.000 C 
BRANCH  32  36
ATOM     36  O7  UNK     0     -32.721  19.340 -27.285  0.00  0.00    +0.000 OA
ATOM     37  H73 UNK     0     -33.436  19.098 -27.897  0.00  0.00    +0.000 HD
ENDBRANCH  32  36
BRANCH  34  38
ATOM     38  O9  UNK     0     -32.618  19.002 -23.669  0.00  0.00    +0.000 OA
ATOM     39  H74 UNK     0     -32.235  18.311 -23.103  0.00  0.00    +0.000 HD
ENDBRANCH  34  38
BRANCH  35  40
ATOM     40  O4  UNK     0     -31.339  16.624 -24.251  0.00  0.00    +0.000 OA
BRANCH  40  42
ATOM     41  O8  UNK     0     -34.161  15.323 -22.269  0.00  0.00    +0.000 OA
ATOM     42  C32 UNK     0     -32.033  16.211 -23.076  0.00  0.00    +0.000 C 
ATOM     43  C34 UNK     0     -32.192  17.432 -22.167  0.00  0.00    +0.000 C 
ATOM     44  C36 UNK     0     -33.397  15.613 -23.445  0.00  0.00    +0.000 C 
ATOM     45  C40 UNK     0     -33.119  17.111 -20.996  0.00  0.00    +0.000 C 
ATOM     46  C42 UNK     0     -34.428  16.476 -21.468  0.00  0.00    +0.000 C 
BRANCH  43  47
ATOM     47  O12 UNK     0     -30.903  17.783 -21.659  0.00  0.00    +0.000 OA
ATOM     48  H81 UNK     0     -30.550  18.511 -22.200  0.00  0.00    +0.000 HD
ENDBRANCH  43  47
BRANCH  45  49
ATOM     49  O15 UNK     0     -33.385  18.304 -20.266  0.00  0.00    +0.000 OA
ATOM     50  H84 UNK     0     -33.947  18.870 -20.824  0.00  0.00    +0.000 HD
ENDBRANCH  45  49
BRANCH  46  51
ATOM     51  O16 UNK     0     -35.282  17.407 -22.130  0.00  0.00    +0.000 OA
ATOM     52  H85 UNK     0     -36.173  17.019 -22.144  0.00  0.00    +0.000 HD
ENDBRANCH  46  51
BRANCH  44  53
ATOM     53  C43 UNK     0     -33.258  14.305 -24.221  0.00  0.00    +0.000 C 
BRANCH  53  54
ATOM     54  O17 UNK     0     -34.551  13.861 -24.589  0.00  0.00    +0.000 OA
ATOM     55  H86 UNK     0     -34.964  14.575 -25.103  0.00  0.00    +0.000 HD
ENDBRANCH  53  54
ENDBRANCH  44  53
ENDBRANCH  40  42
ENDBRANCH  35  40
BRANCH  33  56
ATOM     56  C39 UNK     0     -34.264  16.547 -27.389  0.00  0.00    +0.000 C 
BRANCH  56  57
ATOM     57  O14 UNK     0     -34.689  15.196 -27.411  0.00  0.00    +0.000 OA
ATOM     58  H83 UNK     0     -34.858  14.934 -26.490  0.00  0.00    +0.000 HD
ENDBRANCH  56  57
ENDBRANCH  33  56
ENDBRANCH   1  31
TORSDOF 22
ENDMDL
MODEL 7
REMARK VINA RESULT:     0.669      2.375      6.910
REMARK INTER + INTRA:          11.887
REMARK INTER:                   4.733
REMARK INTRA:                   7.154
REMARK UNBOUND:                10.612
REMARK  Name = data/B/Ligand/Acarbose.pdb
REMARK  23 active torsions:
REMARK  status: ('A' for Active; 'I' for Inactive)
REMARK    1  A    between atoms: O1_1  and  C22_22
REMARK    2  A    between atoms: O1_1  and  C25_25
REMARK    3  A    between atoms: O4_4  and  C30_30
REMARK    4  A    between atoms: O4_4  and  C32_32
REMARK    5  A    between atoms: O5_5  and  C21_21
REMARK    6  A    between atoms: O6_6  and  C23_23
REMARK    7  A    between atoms: O7_7  and  C26_26
REMARK    8  A    between atoms: O9_9  and  C29_29
REMARK    9  A    between atoms: O10_10  and  C31_31
REMARK   10  A    between atoms: O11_11  and  C33_33
REMARK   11  A    between atoms: O12_12  and  C34_34
REMARK   12  A    between atoms: O13_13  and  C38_38
REMARK   13  A    between atoms: O14_14  and  C39_39
REMARK   14  A    between atoms: O15_15  and  C40_40
REMARK   15  A    between atoms: O16_16  and  C42_42
REMARK   16  A    between atoms: O17_17  and  C43_43
REMARK   17  A    between atoms: O18_18  and  C44_44
REMARK   18  A    between atoms: N19_19  and  C20_20
REMARK   19  A    between atoms: N19_19  and  C28_28
REMARK   20  A    between atoms: C24_24  and  C35_35
REMARK   21  A    between atoms: C27_27  and  C39_39
REMARK   22  A    between atoms: C36_36  and  C43_43
REMARK   23  A    between atoms: C41_41  and  C44_44
REMARK                            x       y       z     vdW  Elec       q    Type
REMARK                         _______ _______ _______ _____ _____    ______ ____
ROOT
ATOM      1  O1  UNK     0     -35.467  14.244 -24.392  0.00  0.00    +0.000 OA
ENDROOT
BRANCH   1   7
ATOM      2  O2  UNK     0     -34.569  15.796 -22.886  0.00  0.00    +0.000 OA
ATOM      3  C20 UNK     0     -32.572  17.158 -23.386  0.00  0.00    +0.000 C 
ATOM      4  C21 UNK     0     -32.672  16.716 -24.859  0.00  0.00    +0.000 C 
ATOM      5  C23 UNK     0     -33.477  15.424 -25.029  0.00  0.00    +0.000 C 
ATOM      6  C24 UNK     0     -33.919  17.049 -22.639  0.00  0.00    +0.000 C 
ATOM      7  C25 UNK     0     -34.799  15.498 -24.262  0.00  0.00    +0.000 C 
ATOM      8  C35 UNK     0     -34.865  18.220 -22.914  0.00  0.00    +0.000 C 
BRANCH   4   9
ATOM      9  O5  UNK     0     -33.301  17.740 -25.629  0.00  0.00    +0.000 OA
ATOM     10  H70 UNK     0     -34.128  17.980 -25.177  0.00  0.00    +0.000 HD
ENDBRANCH   4   9
BRANCH   5  11
ATOM     11  O6  UNK     0     -32.723  14.315 -24.540  0.00  0.00    +0.000 OA
ATOM     12  H72 UNK     0     -33.299  13.814 -23.936  0.00  0.00    +0.000 HD
ENDBRANCH   5  11
BRANCH   3  13
ATOM     13  N19 UNK     0     -31.584  16.319 -22.694  0.00  0.00    +0.000 NA
ATOM     14  H55 UNK     0     -30.753  16.210 -23.272  0.00  0.00    +0.000 HD
BRANCH  13  15
ATOM     15  C28 UNK     0     -31.234  16.901 -21.395  0.00  0.00    +0.000 C 
ATOM     16  C31 UNK     0     -32.335  16.614 -20.351  0.00  0.00    +0.000 C 
ATOM     17  C33 UNK     0     -32.119  17.436 -19.073  0.00  0.00    +0.000 C 
ATOM     18  C37 UNK     0     -30.905  18.366 -21.519  0.00  0.00    +0.000 C 
ATOM     19  C38 UNK     0     -32.032  18.948 -19.358  0.00  0.00    +0.000 C 
ATOM     20  C41 UNK     0     -31.270  19.296 -20.618  0.00  0.00    +0.000 C 
BRANCH  16  21
ATOM     21  O10 UNK     0     -33.635  16.886 -20.876  0.00  0.00    +0.000 OA
ATOM     22  H77 UNK     0     -34.279  16.711 -20.169  0.00  0.00    +0.000 HD
ENDBRANCH  16  21
BRANCH  17  23
ATOM     23  O11 UNK     0     -30.907  17.028 -18.441  0.00  0.00    +0.000 OA
ATOM     24  H80 UNK     0     -30.274  17.763 -18.515  0.00  0.00    +0.000 HD
ENDBRANCH  17  23
BRANCH  19  25
ATOM     25  O13 UNK     0     -33.347  19.487 -19.486  0.00  0.00    +0.000 OA
ATOM     26  H82 UNK     0     -33.834  18.928 -20.115  0.00  0.00    +0.000 HD
ENDBRANCH  19  25
BRANCH  20  27
ATOM     27  C44 UNK     0     -30.918  20.744 -20.804  0.00  0.00    +0.000 C 
BRANCH  27  28
ATOM     28  O18 UNK     0     -31.025  21.421 -19.567  0.00  0.00    +0.000 OA
ATOM     29  H87 UNK     0     -30.602  20.861 -18.894  0.00  0.00    +0.000 HD
ENDBRANCH  27  28
ENDBRANCH  20  27
ENDBRANCH  13  15
ENDBRANCH   3  13
ENDBRANCH   1   7
BRANCH   1  31
ATOM     30  O3  UNK     0     -36.449  16.354 -26.258  0.00  0.00    +0.000 OA
ATOM     31  C22 UNK     0     -35.888  14.016 -25.742  0.00  0.00    +0.000 C 
ATOM     32  C26 UNK     0     -37.382  13.673 -25.710  0.00  0.00    +0.000 C 
ATOM     33  C27 UNK     0     -35.562  15.271 -26.569  0.00  0.00    +0.000 C 
ATOM     34  C29 UNK     0     -38.247  14.916 -25.481  0.00  0.00    +0.000 C 
ATOM     35  C30 UNK     0     -37.835  16.058 -26.413  0.00  0.00    +0.000 C 
BRANCH  32  36
ATOM     36  O7  UNK     0     -37.772  13.073 -26.941  0.00  0.00    +0.000 OA
ATOM     37  H73 UNK     0     -38.691  13.334 -27.117  0.00  0.00    +0.000 HD
ENDBRANCH  32  36
BRANCH  34  38
ATOM     38  O9  UNK     0     -38.125  15.338 -24.122  0.00  0.00    +0.000 OA
ATOM     39  H74 UNK     0     -38.922  15.848 -23.901  0.00  0.00    +0.000 HD
ENDBRANCH  34  38
BRANCH  35  40
ATOM     40  O4  UNK     0     -38.626  17.202 -26.099  0.00  0.00    +0.000 OA
BRANCH  40  42
ATOM     41  O8  UNK     0     -38.397  19.782 -23.476  0.00  0.00    +0.000 OA
ATOM     42  C32 UNK     0     -37.989  18.020 -25.119  0.00  0.00    +0.000 C 
ATOM     43  C34 UNK     0     -36.975  18.915 -25.835  0.00  0.00    +0.000 C 
ATOM     44  C36 UNK     0     -39.032  18.856 -24.365  0.00  0.00    +0.000 C 
ATOM     45  C40 UNK     0     -36.420  19.968 -24.878  0.00  0.00    +0.000 C 
ATOM     46  C42 UNK     0     -37.538  20.710 -24.143  0.00  0.00    +0.000 C 
BRANCH  43  47
ATOM     47  O12 UNK     0     -35.901  18.092 -26.298  0.00  0.00    +0.000 OA
ATOM     48  H81 UNK     0     -35.107  18.647 -26.382  0.00  0.00    +0.000 HD
ENDBRANCH  43  47
BRANCH  45  49
ATOM     49  O15 UNK     0     -35.614  20.888 -25.606  0.00  0.00    +0.000 OA
ATOM     50  H84 UNK     0     -34.735  20.486 -25.713  0.00  0.00    +0.000 HD
ENDBRANCH  45  49
BRANCH  46  51
ATOM     51  O16 UNK     0     -38.260  21.597 -24.995  0.00  0.00    +0.000 OA
ATOM     52  H85 UNK     0     -37.605  22.132 -25.473  0.00  0.00    +0.000 HD
ENDBRANCH  46  51
BRANCH  44  53
ATOM     53  C43 UNK     0     -39.959  17.988 -23.518  0.00  0.00    +0.000 C 
BRANCH  53  54
ATOM     54  O17 UNK     0     -41.164  17.787 -24.232  0.00  0.00    +0.000 OA
ATOM     55  H86 UNK     0     -41.549  18.664 -24.398  0.00  0.00    +0.000 HD
ENDBRANCH  53  54
ENDBRANCH  44  53
ENDBRANCH  40  42
ENDBRANCH  35  40
BRANCH  33  56
ATOM     56  C39 UNK     0     -35.507  15.017 -28.074  0.00  0.00    +0.000 C 
BRANCH  56  57
ATOM     57  O14 UNK     0     -35.429  13.620 -28.293  0.00  0.00    +0.000 OA
ATOM     58  H83 UNK     0     -34.489  13.400 -28.406  0.00  0.00    +0.000 HD
ENDBRANCH  56  57
ENDBRANCH  33  56
ENDBRANCH   1  31
TORSDOF 22
ENDMDL
