MODEL 1
REMARK VINA RESULT:    -8.658      0.000      0.000
REMARK INTER + INTRA:          -9.671
REMARK INTER:                  -9.671
REMARK INTRA:                   0.000
REMARK UNBOUND:                 0.000
REMARK  Name = Brazilin.pdb
REMARK  4 active torsions:
REMARK  status: ('A' for Active; 'I' for Inactive)
REMARK    1  A    between atoms: C3_3  and  O3_6
REMARK    2  A    between atoms: C4_4  and  O4_7
REMARK    3  A    between atoms: C10_10  and  O1_16
REMARK    4  A    between atoms: C19_19  and  O1_21
REMARK                            x       y       z     vdW  Elec       q    Type
REMARK                         _______ _______ _______ _____ _____    ______ ____
ROOT
ATOM      1 3C45 GLC     4       4.632  41.374  21.042  0.00  0.00    +0.000 A 
ATOM      2  C2  GLC     4       3.562  40.371  21.089  0.00  0.00    +0.000 A 
ATOM      3  C3  GLC     4       2.302  40.815  21.124  0.00  0.00    +0.000 A 
ATOM      4  C4  GLC     4       2.018  42.256  21.098  0.00  0.00    +0.000 A 
ATOM      5  C5  GLC     4       3.005  43.161  21.037  0.00  0.00    +0.000 A 
ATOM      6 3C45 GLC     4       4.371  42.676  21.021  0.00  0.00    +0.000 A 
ATOM      7  C9  GLC     4       5.685  43.451  21.045  0.00  0.00    +0.000 C 
ATOM      8  C10 GLC     4       6.546  42.448  20.344  0.00  0.00    +0.000 C 
ATOM      9  C11 GLC     4       6.128  41.148  21.079  0.00  0.00    +0.000 C 
ATOM     10  C12 GLC     4       8.018  42.845  20.363  0.00  0.00    +0.000 C 
ATOM     11  O13 GLC     4       8.113  44.112  19.706  0.00  0.00    +0.000 OA
ATOM     12  C14 GLC     4       7.148  45.067  19.761  0.00  0.00    +0.000 A 
ATOM     13  C15 GLC     4       5.860  44.808  20.431  0.00  0.00    +0.000 A 
ATOM     14  C17 GLC     4       4.945  45.772  20.482  0.00  0.00    +0.000 A 
ATOM     15  C18 GLC     4       5.226  47.059  19.858  0.00  0.00    +0.000 A 
ATOM     16  C19 GLC     4       6.391  47.274  19.251  0.00  0.00    +0.000 A 
ATOM     17  C20 GLC     4       7.389  46.244  19.201  0.00  0.00    +0.000 A 
ENDROOT
BRANCH   3  18
ATOM     18  O3  GLC     4       1.218  39.954  21.198  0.00  0.00    +0.000 OA
ATOM     19  H3  GLC     4       1.339  39.241  21.892  0.00  0.00    +0.000 HD
ENDBRANCH   3  18
BRANCH   4  20
ATOM     20  O4  GLC     4       0.702  42.649  21.150  0.00  0.00    +0.000 OA
ATOM     21  H4  GLC     4       0.147  42.064  20.525  0.00  0.00    +0.000 HD
ENDBRANCH   4  20
BRANCH   8  22
ATOM     22  O1  GLC     4       6.156  42.374  18.960  0.00  0.00    +0.000 OA
ATOM     23  H10 GLC     4       6.890  42.037  18.404  0.00  0.00    +0.000 HD
ENDBRANCH   8  22
BRANCH  16  24
ATOM     24  O1  GLC     4       6.649  48.472  18.675  0.00  0.00    +0.000 OA
ATOM     25  H14 GLC     4       7.576  48.495  18.462  0.00  0.00    +0.000 HD
ENDBRANCH  16  24
TORSDOF 4
ENDMDL
MODEL 2
REMARK VINA RESULT:    -8.150      2.599      5.931
REMARK INTER + INTRA:          -9.103
REMARK INTER:                  -9.103
REMARK INTRA:                   0.000
REMARK UNBOUND:                 0.000
REMARK  Name = Brazilin.pdb
REMARK  4 active torsions:
REMARK  status: ('A' for Active; 'I' for Inactive)
REMARK    1  A    between atoms: C3_3  and  O3_6
REMARK    2  A    between atoms: C4_4  and  O4_7
REMARK    3  A    between atoms: C10_10  and  O1_16
REMARK    4  A    between atoms: C19_19  and  O1_21
REMARK                            x       y       z     vdW  Elec       q    Type
REMARK                         _______ _______ _______ _____ _____    ______ ____
ROOT
ATOM      1 3C45 GLC     4       5.249  44.337  18.971  0.00  0.00    +0.000 A 
ATOM      2  C2  GLC     4       6.253  44.729  17.976  0.00  0.00    +0.000 A 
ATOM      3  C3  GLC     4       7.243  45.530  18.382  0.00  0.00    +0.000 A 
ATOM      4  C4  GLC     4       7.317  45.976  19.780  0.00  0.00    +0.000 A 
ATOM      5  C5  GLC     4       6.402  45.596  20.682  0.00  0.00    +0.000 A 
ATOM      6 3C45 GLC     4       5.318  44.745  20.234  0.00  0.00    +0.000 A 
ATOM      7  C9  GLC     4       4.099  44.230  20.994  0.00  0.00    +0.000 C 
ATOM      8  C10 GLC     4       3.863  42.978  20.210  0.00  0.00    +0.000 C 
ATOM      9  C11 GLC     4       3.995  43.517  18.763  0.00  0.00    +0.000 C 
ATOM     10  C12 GLC     4       2.560  42.292  20.608  0.00  0.00    +0.000 C 
ATOM     11  O13 GLC     4       2.664  41.983  22.000  0.00  0.00    +0.000 OA
ATOM     12  C14 GLC     4       3.331  42.753  22.899  0.00  0.00    +0.000 A 
ATOM     13  C15 GLC     4       4.102  43.933  22.464  0.00  0.00    +0.000 A 
ATOM     14  C17 GLC     4       4.728  44.676  23.373  0.00  0.00    +0.000 A 
ATOM     15  C18 GLC     4       4.655  44.298  24.778  0.00  0.00    +0.000 A 
ATOM     16  C19 GLC     4       3.960  43.226  25.153  0.00  0.00    +0.000 A 
ATOM     17  C20 GLC     4       3.272  42.425  24.182  0.00  0.00    +0.000 A 
ENDROOT
BRANCH   3  18
ATOM     18  O3  GLC     4       8.228  45.982  17.516  0.00  0.00    +0.000 OA
ATOM     19  H3  GLC     4       7.914  46.024  16.565  0.00  0.00    +0.000 HD
ENDBRANCH   3  18
BRANCH   4  20
ATOM     20  O4  GLC     4       8.352  46.809  20.130  0.00  0.00    +0.000 OA
ATOM     21  H4  GLC     4       7.979  47.716  20.412  0.00  0.00    +0.000 HD
ENDBRANCH   4  20
BRANCH   8  22
ATOM     22  O1  GLC     4       4.922  42.041  20.482  0.00  0.00    +0.000 OA
ATOM     23  H10 GLC     4       5.601  42.061  19.775  0.00  0.00    +0.000 HD
ENDBRANCH   8  22
BRANCH  16  24
ATOM     24  O1  GLC     4       3.893  42.881  26.461  0.00  0.00    +0.000 OA
ATOM     25  H14 GLC     4       3.448  43.584  26.921  0.00  0.00    +0.000 HD
ENDBRANCH  16  24
TORSDOF 4
ENDMDL
MODEL 3
REMARK VINA RESULT:    -8.040      3.313      5.855
REMARK INTER + INTRA:          -8.980
REMARK INTER:                  -8.980
REMARK INTRA:                   0.000
REMARK UNBOUND:                 0.000
REMARK  Name = Brazilin.pdb
REMARK  4 active torsions:
REMARK  status: ('A' for Active; 'I' for Inactive)
REMARK    1  A    between atoms: C3_3  and  O3_6
REMARK    2  A    between atoms: C4_4  and  O4_7
REMARK    3  A    between atoms: C10_10  and  O1_16
REMARK    4  A    between atoms: C19_19  and  O1_21
REMARK                            x       y       z     vdW  Elec       q    Type
REMARK                         _______ _______ _______ _____ _____    ______ ____
ROOT
ATOM      1 3C45 GLC     4       4.139  43.406  20.167  0.00  0.00    +0.000 A 
ATOM      2  C2  GLC     4       4.686  44.061  18.974  0.00  0.00    +0.000 A 
ATOM      3  C3  GLC     4       5.057  45.340  19.088  0.00  0.00    +0.000 A 
ATOM      4  C4  GLC     4       4.931  46.041  20.373  0.00  0.00    +0.000 A 
ATOM      5  C5  GLC     4       4.445  45.426  21.459  0.00  0.00    +0.000 A 
ATOM      6 3C45 GLC     4       4.024  44.045  21.326  0.00  0.00    +0.000 A 
ATOM      7  C9  GLC     4       3.359  43.122  22.343  0.00  0.00    +0.000 C 
ATOM      8  C10 GLC     4       3.846  41.814  21.805  0.00  0.00    +0.000 C 
ATOM      9  C11 GLC     4       3.573  42.008  20.291  0.00  0.00    +0.000 C 
ATOM     10  C12 GLC     4       3.193  40.628  22.508  0.00  0.00    +0.000 C 
ATOM     11  O13 GLC     4       3.524  40.737  23.895  0.00  0.00    +0.000 OA
ATOM     12  C14 GLC     4       3.672  41.920  24.547  0.00  0.00    +0.000 A 
ATOM     13  C15 GLC     4       3.604  43.202  23.821  0.00  0.00    +0.000 A 
ATOM     14  C17 GLC     4       3.736  44.341  24.494  0.00  0.00    +0.000 A 
ATOM     15  C18 GLC     4       3.962  44.300  25.933  0.00  0.00    +0.000 A 
ATOM     16  C19 GLC     4       4.027  43.134  26.572  0.00  0.00    +0.000 A 
ATOM     17  C20 GLC     4       3.875  41.900  25.857  0.00  0.00    +0.000 A 
ENDROOT
BRANCH   3  18
ATOM     18  O3  GLC     4       5.561  46.060  18.016  0.00  0.00    +0.000 OA
ATOM     19  H3  GLC     4       6.563  46.102  18.017  0.00  0.00    +0.000 HD
ENDBRANCH   3  18
BRANCH   4  20
ATOM     20  O4  GLC     4       5.317  47.359  20.421  0.00  0.00    +0.000 OA
ATOM     21  H4  GLC     4       6.117  47.503  19.805  0.00  0.00    +0.000 HD
ENDBRANCH   4  20
BRANCH   8  22
ATOM     22  O1  GLC     4       5.262  41.703  22.037  0.00  0.00    +0.000 OA
ATOM     23  H10 GLC     4       5.611  40.853  21.694  0.00  0.00    +0.000 HD
ENDBRANCH   8  22
BRANCH  16  24
ATOM     24  O1  GLC     4       4.234  43.101  27.910  0.00  0.00    +0.000 OA
ATOM     25  H14 GLC     4       4.946  42.492  28.075  0.00  0.00    +0.000 HD
ENDBRANCH  16  24
TORSDOF 4
ENDMDL
MODEL 4
REMARK VINA RESULT:    -7.760      2.374      3.036
REMARK INTER + INTRA:          -8.667
REMARK INTER:                  -8.667
REMARK INTRA:                   0.000
REMARK UNBOUND:                 0.000
REMARK  Name = Brazilin.pdb
REMARK  4 active torsions:
REMARK  status: ('A' for Active; 'I' for Inactive)
REMARK    1  A    between atoms: C3_3  and  O3_6
REMARK    2  A    between atoms: C4_4  and  O4_7
REMARK    3  A    between atoms: C10_10  and  O1_16
REMARK    4  A    between atoms: C19_19  and  O1_21
REMARK                            x       y       z     vdW  Elec       q    Type
REMARK                         _______ _______ _______ _____ _____    ______ ____
ROOT
ATOM      1 3C45 GLC     4       3.188  42.275  23.757  0.00  0.00    +0.000 A 
ATOM      2  C2  GLC     4       2.542  41.141  24.427  0.00  0.00    +0.000 A 
ATOM      3  C3  GLC     4       1.825  40.304  23.670  0.00  0.00    +0.000 A 
ATOM      4  C4  GLC     4       1.715  40.518  22.221  0.00  0.00    +0.000 A 
ATOM      5  C5  GLC     4       2.324  41.548  21.620  0.00  0.00    +0.000 A 
ATOM      6 3C45 GLC     4       3.083  42.466  22.446  0.00  0.00    +0.000 A 
ATOM      7  C9  GLC     4       3.800  43.759  22.069  0.00  0.00    +0.000 C 
ATOM      8  C10 GLC     4       4.843  43.753  23.142  0.00  0.00    +0.000 C 
ATOM      9  C11 GLC     4       3.978  43.404  24.380  0.00  0.00    +0.000 C 
ATOM     10  C12 GLC     4       5.645  45.050  23.166  0.00  0.00    +0.000 C 
ATOM     11  O13 GLC     4       6.266  45.175  21.884  0.00  0.00    +0.000 OA
ATOM     12  C14 GLC     4       5.704  44.742  20.725  0.00  0.00    +0.000 A 
ATOM     13  C15 GLC     4       4.431  43.998  20.730  0.00  0.00    +0.000 A 
ATOM     14  C17 GLC     4       3.900  43.604  19.576  0.00  0.00    +0.000 A 
ATOM     15  C18 GLC     4       4.596  43.901  18.330  0.00  0.00    +0.000 A 
ATOM     16  C19 GLC     4       5.749  44.568  18.344  0.00  0.00    +0.000 A 
ATOM     17  C20 GLC     4       6.324  45.006  19.583  0.00  0.00    +0.000 A 
ENDROOT
BRANCH   3  18
ATOM     18  O3  GLC     4       1.152  39.217  24.207  0.00  0.00    +0.000 OA
ATOM     19  H3  GLC     4       0.750  39.418  25.103  0.00  0.00    +0.000 HD
ENDBRANCH   3  18
BRANCH   4  20
ATOM     20  O4  GLC     4       0.952  39.630  21.502  0.00  0.00    +0.000 OA
ATOM     21  H4  GLC     4      -0.020  39.692  21.804  0.00  0.00    +0.000 HD
ENDBRANCH   4  20
BRANCH   8  22
ATOM     22  O1  GLC     4       5.781  42.692  22.886  0.00  0.00    +0.000 OA
ATOM     23  H10 GLC     4       6.056  42.683  21.944  0.00  0.00    +0.000 HD
ENDBRANCH   8  22
BRANCH  16  24
ATOM     24  O1  GLC     4       6.391  44.843  17.184  0.00  0.00    +0.000 OA
ATOM     25  H14 GLC     4       6.707  45.738  17.236  0.00  0.00    +0.000 HD
ENDBRANCH  16  24
TORSDOF 4
ENDMDL
MODEL 5
REMARK VINA RESULT:    -7.703      1.600      5.763
REMARK INTER + INTRA:          -8.604
REMARK INTER:                  -8.604
REMARK INTRA:                   0.000
REMARK UNBOUND:                 0.000
REMARK  Name = Brazilin.pdb
REMARK  4 active torsions:
REMARK  status: ('A' for Active; 'I' for Inactive)
REMARK    1  A    between atoms: C3_3  and  O3_6
REMARK    2  A    between atoms: C4_4  and  O4_7
REMARK    3  A    between atoms: C10_10  and  O1_16
REMARK    4  A    between atoms: C19_19  and  O1_21
REMARK                            x       y       z     vdW  Elec       q    Type
REMARK                         _______ _______ _______ _____ _____    ______ ____
ROOT
ATOM      1 3C45 GLC     4       6.461  44.456  18.801  0.00  0.00    +0.000 A 
ATOM      2  C2  GLC     4       7.177  45.710  18.539  0.00  0.00    +0.000 A 
ATOM      3  C3  GLC     4       6.685  46.826  19.086  0.00  0.00    +0.000 A 
ATOM      4  C4  GLC     4       5.483  46.777  19.930  0.00  0.00    +0.000 A 
ATOM      5  C5  GLC     4       4.850  45.622  20.174  0.00  0.00    +0.000 A 
ATOM      6 3C45 GLC     4       5.373  44.416  19.562  0.00  0.00    +0.000 A 
ATOM      7  C9  GLC     4       4.827  42.992  19.581  0.00  0.00    +0.000 C 
ATOM      8  C10 GLC     4       6.117  42.258  19.396  0.00  0.00    +0.000 C 
ATOM      9  C11 GLC     4       6.751  43.079  18.244  0.00  0.00    +0.000 C 
ATOM     10  C12 GLC     4       5.900  40.764  19.181  0.00  0.00    +0.000 C 
ATOM     11  O13 GLC     4       5.223  40.274  20.342  0.00  0.00    +0.000 OA
ATOM     12  C14 GLC     4       4.322  40.999  21.056  0.00  0.00    +0.000 A 
ATOM     13  C15 GLC     4       4.058  42.413  20.732  0.00  0.00    +0.000 A 
ATOM     14  C17 GLC     4       3.156  43.088  21.440  0.00  0.00    +0.000 A 
ATOM     15  C18 GLC     4       2.460  42.421  22.532  0.00  0.00    +0.000 A 
ATOM     16  C19 GLC     4       2.715  41.145  22.816  0.00  0.00    +0.000 A 
ATOM     17  C20 GLC     4       3.678  40.406  22.051  0.00  0.00    +0.000 A 
ENDROOT
BRANCH   3  18
ATOM     18  O3  GLC     4       7.268  48.067  18.880  0.00  0.00    +0.000 OA
ATOM     19  H3  GLC     4       6.597  48.771  18.638  0.00  0.00    +0.000 HD
ENDBRANCH   3  18
BRANCH   4  20
ATOM     20  O4  GLC     4       5.021  47.961  20.451  0.00  0.00    +0.000 OA
ATOM     21  H4  GLC     4       4.476  47.773  21.293  0.00  0.00    +0.000 HD
ENDBRANCH   4  20
BRANCH   8  22
ATOM     22  O1  GLC     4       6.914  42.392  20.588  0.00  0.00    +0.000 OA
ATOM     23  H10 GLC     4       6.484  41.953  21.352  0.00  0.00    +0.000 HD
ENDBRANCH   8  22
BRANCH  16  24
ATOM     24  O1  GLC     4       2.064  40.529  23.831  0.00  0.00    +0.000 OA
ATOM     25  H14 GLC     4       2.386  40.899  24.645  0.00  0.00    +0.000 HD
ENDBRANCH  16  24
TORSDOF 4
ENDMDL
MODEL 6
REMARK VINA RESULT:    -7.454      1.833      3.272
REMARK INTER + INTRA:          -8.325
REMARK INTER:                  -8.325
REMARK INTRA:                   0.000
REMARK UNBOUND:                 0.000
REMARK  Name = Brazilin.pdb
REMARK  4 active torsions:
REMARK  status: ('A' for Active; 'I' for Inactive)
REMARK    1  A    between atoms: C3_3  and  O3_6
REMARK    2  A    between atoms: C4_4  and  O4_7
REMARK    3  A    between atoms: C10_10  and  O1_16
REMARK    4  A    between atoms: C19_19  and  O1_21
REMARK                            x       y       z     vdW  Elec       q    Type
REMARK                         _______ _______ _______ _____ _____    ______ ____
ROOT
ATOM      1 3C45 GLC     4       3.521  43.716  21.494  0.00  0.00    +0.000 A 
ATOM      2  C2  GLC     4       2.745  42.844  22.383  0.00  0.00    +0.000 A 
ATOM      3  C3  GLC     4       2.851  41.525  22.200  0.00  0.00    +0.000 A 
ATOM      4  C4  GLC     4       3.730  40.985  21.154  0.00  0.00    +0.000 A 
ATOM      5  C5  GLC     4       4.446  41.792  20.360  0.00  0.00    +0.000 A 
ATOM      6 3C45 GLC     4       4.312  43.224  20.547  0.00  0.00    +0.000 A 
ATOM      7  C9  GLC     4       4.919  44.376  19.752  0.00  0.00    +0.000 C 
ATOM      8  C10 GLC     4       4.942  45.405  20.839  0.00  0.00    +0.000 C 
ATOM      9  C11 GLC     4       3.520  45.227  21.431  0.00  0.00    +0.000 C 
ATOM     10  C12 GLC     4       5.337  46.781  20.314  0.00  0.00    +0.000 C 
ATOM     11  O13 GLC     4       6.641  46.647  19.743  0.00  0.00    +0.000 OA
ATOM     12  C14 GLC     4       7.081  45.525  19.114  0.00  0.00    +0.000 A 
ATOM     13  C15 GLC     4       6.255  44.304  19.074  0.00  0.00    +0.000 A 
ATOM     14  C17 GLC     4       6.708  43.230  18.435  0.00  0.00    +0.000 A 
ATOM     15  C18 GLC     4       8.020  43.275  17.801  0.00  0.00    +0.000 A 
ATOM     16  C19 GLC     4       8.756  44.384  17.853  0.00  0.00    +0.000 A 
ATOM     17  C20 GLC     4       8.271  45.552  18.531  0.00  0.00    +0.000 A 
ENDROOT
BRANCH   3  18
ATOM     18  O3  GLC     4       2.140  40.614  22.967  0.00  0.00    +0.000 OA
ATOM     19  H3  GLC     4       1.300  41.005  23.349  0.00  0.00    +0.000 HD
ENDBRANCH   3  18
BRANCH   4  20
ATOM     20  O4  GLC     4       3.785  39.620  21.007  0.00  0.00    +0.000 OA
ATOM     21  H4  GLC     4       4.516  39.378  20.339  0.00  0.00    +0.000 HD
ENDBRANCH   4  20
BRANCH   8  22
ATOM     22  O1  GLC     4       5.930  45.038  21.819  0.00  0.00    +0.000 OA
ATOM     23  H10 GLC     4       6.710  45.629  21.773  0.00  0.00    +0.000 HD
ENDBRANCH   8  22
BRANCH  16  24
ATOM     24  O1  GLC     4       9.973  44.422  17.261  0.00  0.00    +0.000 OA
ATOM     25  H14 GLC     4       9.972  45.149  16.647  0.00  0.00    +0.000 HD
ENDBRANCH  16  24
TORSDOF 4
ENDMDL
MODEL 7
REMARK VINA RESULT:    -7.330      2.123      6.175
REMARK INTER + INTRA:          -8.187
REMARK INTER:                  -8.187
REMARK INTRA:                   0.000
REMARK UNBOUND:                 0.000
REMARK  Name = Brazilin.pdb
REMARK  4 active torsions:
REMARK  status: ('A' for Active; 'I' for Inactive)
REMARK    1  A    between atoms: C3_3  and  O3_6
REMARK    2  A    between atoms: C4_4  and  O4_7
REMARK    3  A    between atoms: C10_10  and  O1_16
REMARK    4  A    between atoms: C19_19  and  O1_21
REMARK                            x       y       z     vdW  Elec       q    Type
REMARK                         _______ _______ _______ _____ _____    ______ ____
ROOT
ATOM      1 3C45 GLC     4       6.336  45.042  21.319  0.00  0.00    +0.000 A 
ATOM      2  C2  GLC     4       6.929  46.069  20.456  0.00  0.00    +0.000 A 
ATOM      3  C3  GLC     4       6.813  45.907  19.135  0.00  0.00    +0.000 A 
ATOM      4  C4  GLC     4       6.100  44.745  18.586  0.00  0.00    +0.000 A 
ATOM      5  C5  GLC     4       5.549  43.823  19.386  0.00  0.00    +0.000 A 
ATOM      6 3C45 GLC     4       5.695  43.992  20.818  0.00  0.00    +0.000 A 
ATOM      7  C9  GLC     4       5.262  43.077  21.961  0.00  0.00    +0.000 C 
ATOM      8  C10 GLC     4       5.095  44.117  23.024  0.00  0.00    +0.000 C 
ATOM      9  C11 GLC     4       6.394  44.939  22.827  0.00  0.00    +0.000 C 
ATOM     10  C12 GLC     4       4.834  43.498  24.393  0.00  0.00    +0.000 C 
ATOM     11  O13 GLC     4       3.637  42.724  24.275  0.00  0.00    +0.000 OA
ATOM     12  C14 GLC     4       3.271  42.063  23.146  0.00  0.00    +0.000 A 
ATOM     13  C15 GLC     4       4.054  42.191  21.903  0.00  0.00    +0.000 A 
ATOM     14  C17 GLC     4       3.677  41.515  20.821  0.00  0.00    +0.000 A 
ATOM     15  C18 GLC     4       2.489  40.674  20.881  0.00  0.00    +0.000 A 
ATOM     16  C19 GLC     4       1.789  40.574  22.010  0.00  0.00    +0.000 A 
ATOM     17  C20 GLC     4       2.194  41.291  23.185  0.00  0.00    +0.000 A 
ENDROOT
BRANCH   3  18
ATOM     18  O3  GLC     4       7.360  46.804  18.230  0.00  0.00    +0.000 OA
ATOM     19  H3  GLC     4       7.769  46.348  17.436  0.00  0.00    +0.000 HD
ENDBRANCH   3  18
BRANCH   4  20
ATOM     20  O4  GLC     4       6.028  44.629  17.218  0.00  0.00    +0.000 OA
ATOM     21  H4  GLC     4       6.967  44.665  16.823  0.00  0.00    +0.000 HD
ENDBRANCH   4  20
BRANCH   8  22
ATOM     22  O1  GLC     4       3.949  44.932  22.714  0.00  0.00    +0.000 OA
ATOM     23  H10 GLC     4       3.130  44.548  23.093  0.00  0.00    +0.000 HD
ENDBRANCH   8  22
BRANCH  16  24
ATOM     24  O1  GLC     4       0.687  39.789  22.061  0.00  0.00    +0.000 OA
ATOM     25  H14 GLC     4       0.324  39.746  21.184  0.00  0.00    +0.000 HD
ENDBRANCH  16  24
TORSDOF 4
ENDMDL
MODEL 8
REMARK VINA RESULT:    -7.324      2.901      6.876
REMARK INTER + INTRA:          -8.180
REMARK INTER:                  -8.180
REMARK INTRA:                   0.000
REMARK UNBOUND:                 0.000
REMARK  Name = Brazilin.pdb
REMARK  4 active torsions:
REMARK  status: ('A' for Active; 'I' for Inactive)
REMARK    1  A    between atoms: C3_3  and  O3_6
REMARK    2  A    between atoms: C4_4  and  O4_7
REMARK    3  A    between atoms: C10_10  and  O1_16
REMARK    4  A    between atoms: C19_19  and  O1_21
REMARK                            x       y       z     vdW  Elec       q    Type
REMARK                         _______ _______ _______ _____ _____    ______ ____
ROOT
ATOM      1 3C45 GLC     4       4.037  43.613  20.975  0.00  0.00    +0.000 A 
ATOM      2  C2  GLC     4       5.084  44.508  20.469  0.00  0.00    +0.000 A 
ATOM      3  C3  GLC     4       5.841  45.143  21.370  0.00  0.00    +0.000 A 
ATOM      4  C4  GLC     4       5.629  44.926  22.807  0.00  0.00    +0.000 A 
ATOM      5  C5  GLC     4       4.680  44.093  23.255  0.00  0.00    +0.000 A 
ATOM      6 3C45 GLC     4       3.847  43.423  22.276  0.00  0.00    +0.000 A 
ATOM      7  C9  GLC     4       2.648  42.501  22.478  0.00  0.00    +0.000 C 
ATOM      8  C10 GLC     4       2.763  41.710  21.212  0.00  0.00    +0.000 C 
ATOM      9  C11 GLC     4       3.000  42.847  20.185  0.00  0.00    +0.000 C 
ATOM     10  C12 GLC     4       1.566  40.789  21.004  0.00  0.00    +0.000 C 
ATOM     11  O13 GLC     4       1.524  39.905  22.129  0.00  0.00    +0.000 OA
ATOM     12  C14 GLC     4       1.901  40.261  23.385  0.00  0.00    +0.000 A 
ATOM     13  C15 GLC     4       2.494  41.584  23.654  0.00  0.00    +0.000 A 
ATOM     14  C17 GLC     4       2.836  41.906  24.899  0.00  0.00    +0.000 A 
ATOM     15  C18 GLC     4       2.632  40.938  25.969  0.00  0.00    +0.000 A 
ATOM     16  C19 GLC     4       2.101  39.745  25.708  0.00  0.00    +0.000 A 
ATOM     17  C20 GLC     4       1.719  39.393  24.370  0.00  0.00    +0.000 A 
ENDROOT
BRANCH   3  18
ATOM     18  O3  GLC     4       6.839  46.031  21.000  0.00  0.00    +0.000 OA
ATOM     19  H3  GLC     4       7.737  45.774  21.364  0.00  0.00    +0.000 HD
ENDBRANCH   3  18
BRANCH   4  20
ATOM     20  O4  GLC     4       6.431  45.619  23.682  0.00  0.00    +0.000 OA
ATOM     21  H4  GLC     4       5.851  46.099  24.370  0.00  0.00    +0.000 HD
ENDBRANCH   4  20
BRANCH   8  22
ATOM     22  O1  GLC     4       3.927  40.865  21.285  0.00  0.00    +0.000 OA
ATOM     23  H10 GLC     4       3.709  39.998  21.687  0.00  0.00    +0.000 HD
ENDBRANCH   8  22
BRANCH  16  24
ATOM     24  O1  GLC     4       1.911  38.850  26.706  0.00  0.00    +0.000 OA
ATOM     25  H14 GLC     4       2.760  38.671  27.097  0.00  0.00    +0.000 HD
ENDBRANCH  16  24
TORSDOF 4
ENDMDL
MODEL 9
REMARK VINA RESULT:    -7.299      1.675      6.169
REMARK INTER + INTRA:          -8.153
REMARK INTER:                  -8.153
REMARK INTRA:                   0.000
REMARK UNBOUND:                 0.000
REMARK  Name = Brazilin.pdb
REMARK  4 active torsions:
REMARK  status: ('A' for Active; 'I' for Inactive)
REMARK    1  A    between atoms: C3_3  and  O3_6
REMARK    2  A    between atoms: C4_4  and  O4_7
REMARK    3  A    between atoms: C10_10  and  O1_16
REMARK    4  A    between atoms: C19_19  and  O1_21
REMARK                            x       y       z     vdW  Elec       q    Type
REMARK                         _______ _______ _______ _____ _____    ______ ____
ROOT
ATOM      1 3C45 GLC     4       7.343  44.593  20.024  0.00  0.00    +0.000 A 
ATOM      2  C2  GLC     4       8.576  44.750  19.244  0.00  0.00    +0.000 A 
ATOM      3  C3  GLC     4       9.188  43.637  18.827  0.00  0.00    +0.000 A 
ATOM      4  C4  GLC     4       8.623  42.316  19.133  0.00  0.00    +0.000 A 
ATOM      5  C5  GLC     4       7.488  42.188  19.832  0.00  0.00    +0.000 A 
ATOM      6 3C45 GLC     4       6.838  43.396  20.301  0.00  0.00    +0.000 A 
ATOM      7  C9  GLC     4       5.603  43.565  21.181  0.00  0.00    +0.000 C 
ATOM      8  C10 GLC     4       5.159  44.905  20.683  0.00  0.00    +0.000 C 
ATOM      9  C11 GLC     4       6.508  45.670  20.680  0.00  0.00    +0.000 C 
ATOM     10  C12 GLC     4       4.012  45.471  21.513  0.00  0.00    +0.000 C 
ATOM     11  O13 GLC     4       2.934  44.535  21.420  0.00  0.00    +0.000 OA
ATOM     12  C14 GLC     4       3.105  43.190  21.320  0.00  0.00    +0.000 A 
ATOM     13  C15 GLC     4       4.452  42.604  21.190  0.00  0.00    +0.000 A 
ATOM     14  C17 GLC     4       4.584  41.283  21.113  0.00  0.00    +0.000 A 
ATOM     15  C18 GLC     4       3.394  40.442  21.141  0.00  0.00    +0.000 A 
ATOM     16  C19 GLC     4       2.185  40.988  21.252  0.00  0.00    +0.000 A 
ATOM     17  C20 GLC     4       2.033  42.412  21.347  0.00  0.00    +0.000 A 
ENDROOT
BRANCH   3  18
ATOM     18  O3  GLC     4      10.372  43.672  18.106  0.00  0.00    +0.000 OA
ATOM     19  H3  GLC     4      10.776  42.763  17.986  0.00  0.00    +0.000 HD
ENDBRANCH   3  18
BRANCH   4  20
ATOM     20  O4  GLC     4       9.308  41.211  18.688  0.00  0.00    +0.000 OA
ATOM     21  H4  GLC     4      10.159  41.093  19.237  0.00  0.00    +0.000 HD
ENDBRANCH   4  20
BRANCH   8  22
ATOM     22  O1  GLC     4       4.669  44.771  19.336  0.00  0.00    +0.000 OA
ATOM     23  H10 GLC     4       4.116  43.967  19.240  0.00  0.00    +0.000 HD
ENDBRANCH   8  22
BRANCH  16  24
ATOM     24  O1  GLC     4       1.082  40.203  21.280  0.00  0.00    +0.000 OA
ATOM     25  H14 GLC     4       0.376  40.713  21.662  0.00  0.00    +0.000 HD
ENDBRANCH  16  24
TORSDOF 4
ENDMDL
