MODEL 1
REMARK VINA RESULT:    -5.288      0.000      0.000
REMARK INTER + INTRA:          -6.093
REMARK INTER:                  -5.906
REMARK INTRA:                  -0.187
REMARK UNBOUND:                -0.187
REMARK  2 active torsions:
REMARK  status: ('A' for Active; 'I' for Inactive)
REMARK    1  A    between atoms: C9_9  and  C13_13 
REMARK    2  A    between atoms: C10_10  and  C14_14 
ROOT
HETATM    1  O1          0      47.211  18.663 240.315  1.00  0.00    -0.380 OA
HETATM    2  O2          0      47.680  21.793 237.521  1.00  0.00    -0.380 OA
HETATM    3  C7          0      48.490  20.256 239.245  1.00  0.00     0.052 C 
HETATM    4  C8          0      47.354  21.020 239.669  1.00  0.00     0.052 C 
HETATM    5  C9          0      47.919  18.823 239.036  1.00  0.00     0.161 C 
HETATM    6  C10         0      46.575  21.289 238.350  1.00  0.00     0.161 C 
HETATM    7  C11         0      46.769  20.074 240.762  1.00  0.00     0.176 C 
HETATM    8  C12         0      48.968  21.109 238.030  1.00  0.00     0.176 C 
ENDROOT
BRANCH   5   9
HETATM    9  C13         0      49.059  17.779 238.815  1.00  0.00    -0.026 A 
HETATM   10  C15         0      48.734  16.467 238.771  1.00  0.00     0.049 A 
HETATM   11  C19         0      49.839  15.494 238.674  1.00  0.00     0.105 A 
HETATM   12  O3          0      49.730  14.148 238.620  1.00  0.00    -0.323 OA
HETATM   13  C23         0      51.070  15.846 238.659  1.00  0.00     0.105 A 
HETATM   14  C25         0      51.062  13.583 238.567  1.00  0.00     0.352 A 
HETATM   15  O5          0      51.883  14.771 238.591  1.00  0.00    -0.323 OA
HETATM   16  C21         0      51.478  17.243 238.710  1.00  0.00     0.040 A 
HETATM   17  C17         0      50.508  18.169 238.781  1.00  0.00     0.012 A 
ENDBRANCH   5   9
BRANCH   6  18
HETATM   18  C14         0      45.428  22.329 238.565  1.00  0.00    -0.026 A 
HETATM   19  C18         0      44.994  23.276 237.484  1.00  0.00     0.012 A 
HETATM   20  C22         0      43.929  24.080 237.646  1.00  0.00     0.040 A 
HETATM   21  C24         0      43.217  24.001 238.915  1.00  0.00     0.105 A 
HETATM   22  O6          0      42.128  24.713 239.272  1.00  0.00    -0.323 OA
HETATM   23  C20         0      43.580  23.209 239.852  1.00  0.00     0.105 A 
HETATM   24  C26         0      41.747  24.316 240.606  1.00  0.00     0.352 A 
HETATM   25  O4          0      42.756  23.326 240.918  1.00  0.00    -0.323 OA
HETATM   26  C16         0      44.729  22.292 239.721  1.00  0.00     0.049 A 
ENDBRANCH   6  18
TORSDOF 2
ENDMDL
MODEL 2
REMARK VINA RESULT:    -5.229      0.054      9.015
REMARK INTER + INTRA:          -6.028
REMARK INTER:                  -5.844
REMARK INTRA:                  -0.184
REMARK UNBOUND:                -0.187
REMARK  2 active torsions:
REMARK  status: ('A' for Active; 'I' for Inactive)
REMARK    1  A    between atoms: C9_9  and  C13_13 
REMARK    2  A    between atoms: C10_10  and  C14_14 
ROOT
HETATM    1  O1          0      47.637  21.801 237.539  1.00  0.00    -0.380 OA
HETATM    2  O2          0      47.188  18.666 240.331  1.00  0.00    -0.380 OA
HETATM    3  C7          0      47.330  21.024 239.689  1.00  0.00     0.052 C 
HETATM    4  C8          0      48.460  20.259 239.252  1.00  0.00     0.052 C 
HETATM    5  C9          0      46.538  21.299 238.378  1.00  0.00     0.161 C 
HETATM    6  C10         0      47.883  18.829 239.045  1.00  0.00     0.161 C 
HETATM    7  C11         0      48.929  21.113 238.035  1.00  0.00     0.176 C 
HETATM    8  C12         0      46.753  20.077 240.785  1.00  0.00     0.176 C 
ENDROOT
BRANCH   5   9
HETATM    9  C13         0      45.397  22.341 238.606  1.00  0.00    -0.026 A 
HETATM   10  C15         0      44.701  22.296 239.765  1.00  0.00     0.049 A 
HETATM   11  C19         0      43.557  23.216 239.911  1.00  0.00     0.105 A 
HETATM   12  O3          0      42.738  23.326 240.979  1.00  0.00    -0.323 OA
HETATM   13  C23         0      43.195  24.019 238.981  1.00  0.00     0.105 A 
HETATM   14  C25         0      41.732  24.324 240.683  1.00  0.00     0.352 A 
HETATM   15  O5          0      42.110  24.732 239.350  1.00  0.00    -0.323 OA
HETATM   16  C21         0      43.902  24.106 237.712  1.00  0.00     0.040 A 
HETATM   17  C17         0      44.963  23.301 237.537  1.00  0.00     0.012 A 
ENDBRANCH   5   9
BRANCH   6  18
HETATM   18  C14         0      49.018  17.782 238.809  1.00  0.00    -0.026 A 
HETATM   19  C18         0      50.468  18.170 238.757  1.00  0.00     0.012 A 
HETATM   20  C22         0      51.437  17.242 238.673  1.00  0.00     0.040 A 
HETATM   21  C24         0      51.025  15.846 238.628  1.00  0.00     0.105 A 
HETATM   22  O6          0      51.836  14.770 238.551  1.00  0.00    -0.323 OA
HETATM   23  C20         0      49.794  15.496 238.659  1.00  0.00     0.105 A 
HETATM   24  C26         0      51.013  13.584 238.537  1.00  0.00     0.352 A 
HETATM   25  O4          0      49.683  14.149 238.607  1.00  0.00    -0.323 OA
HETATM   26  C16         0      48.692  16.470 238.770  1.00  0.00     0.049 A 
ENDBRANCH   6  18
TORSDOF 2
ENDMDL
MODEL 3
REMARK VINA RESULT:    -5.040      1.091      1.299
REMARK INTER + INTRA:          -5.817
REMARK INTER:                  -5.305
REMARK INTRA:                  -0.511
REMARK UNBOUND:                -0.187
REMARK  2 active torsions:
REMARK  status: ('A' for Active; 'I' for Inactive)
REMARK    1  A    between atoms: C9_9  and  C13_13 
REMARK    2  A    between atoms: C10_10  and  C14_14 
ROOT
HETATM    1  O1          0      47.077  19.628 240.981  1.00  0.00    -0.380 OA
HETATM    2  O2          0      46.227  22.165 237.715  1.00  0.00    -0.380 OA
HETATM    3  C7          0      47.734  21.057 239.294  1.00  0.00     0.052 C 
HETATM    4  C8          0      46.705  21.814 239.944  1.00  0.00     0.052 C 
HETATM    5  C9          0      47.313  19.577 239.530  1.00  0.00     0.161 C 
HETATM    6  C10         0      45.517  21.765 238.940  1.00  0.00     0.161 C 
HETATM    7  C11         0      46.624  21.068 241.311  1.00  0.00     0.176 C 
HETATM    8  C12         0      47.686  21.681 237.866  1.00  0.00     0.176 C 
ENDROOT
BRANCH   5   9
HETATM    9  C13         0      48.446  18.586 239.114  1.00  0.00    -0.026 A 
HETATM   10  C15         0      48.231  17.259 239.262  1.00  0.00     0.049 A 
HETATM   11  C19         0      49.355  16.349 238.968  1.00  0.00     0.105 A 
HETATM   12  O3          0      49.349  15.001 239.055  1.00  0.00    -0.323 OA
HETATM   13  C23         0      50.510  16.772 238.612  1.00  0.00     0.105 A 
HETATM   14  C25         0      50.669  14.515 238.712  1.00  0.00     0.352 A 
HETATM   15  O5          0      51.368  15.746 238.428  1.00  0.00    -0.323 OA
HETATM   16  C21         0      50.800  18.189 238.443  1.00  0.00     0.040 A 
HETATM   17  C17         0      49.803  19.057 238.681  1.00  0.00     0.012 A 
ENDBRANCH   5   9
BRANCH   6  18
HETATM   18  C14         0      44.377  22.749 239.354  1.00  0.00    -0.026 A 
HETATM   19  C18         0      44.190  24.082 238.689  1.00  0.00     0.012 A 
HETATM   20  C22         0      43.134  24.863 238.975  1.00  0.00     0.040 A 
HETATM   21  C24         0      42.182  24.368 239.960  1.00  0.00     0.105 A 
HETATM   22  O6          0      41.061  24.991 240.379  1.00  0.00    -0.323 OA
HETATM   23  C20         0      42.331  23.241 240.546  1.00  0.00     0.105 A 
HETATM   24  C26         0      40.412  24.147 241.353  1.00  0.00     0.352 A 
HETATM   25  O4          0      41.314  23.016 241.409  1.00  0.00    -0.323 OA
HETATM   26  C16         0      43.460  22.336 240.257  1.00  0.00     0.049 A 
ENDBRANCH   6  18
TORSDOF 2
ENDMDL
MODEL 4
REMARK VINA RESULT:    -5.016      1.095      9.047
REMARK INTER + INTRA:          -5.790
REMARK INTER:                  -5.288
REMARK INTRA:                  -0.502
REMARK UNBOUND:                -0.187
REMARK  2 active torsions:
REMARK  status: ('A' for Active; 'I' for Inactive)
REMARK    1  A    between atoms: C9_9  and  C13_13 
REMARK    2  A    between atoms: C10_10  and  C14_14 
ROOT
HETATM    1  O1          0      46.254  22.216 237.731  1.00  0.00    -0.380 OA
HETATM    2  O2          0      47.051  19.619 240.963  1.00  0.00    -0.380 OA
HETATM    3  C7          0      46.699  21.824 239.959  1.00  0.00     0.052 C 
HETATM    4  C8          0      47.735  21.076 239.311  1.00  0.00     0.052 C 
HETATM    5  C9          0      45.526  21.797 238.938  1.00  0.00     0.161 C 
HETATM    6  C10         0      47.307  19.595 239.515  1.00  0.00     0.161 C 
HETATM    7  C11         0      47.711  21.726 237.894  1.00  0.00     0.176 C 
HETATM    8  C12         0      46.596  21.054 241.311  1.00  0.00     0.176 C 
ENDROOT
BRANCH   5   9
HETATM    9  C13         0      44.382  22.778 239.352  1.00  0.00    -0.026 A 
HETATM   10  C15         0      43.459  22.355 240.244  1.00  0.00     0.049 A 
HETATM   11  C19         0      42.328  23.257 240.535  1.00  0.00     0.105 A 
HETATM   12  O3          0      41.305  23.024 241.387  1.00  0.00    -0.323 OA
HETATM   13  C23         0      42.183  24.390 239.957  1.00  0.00     0.105 A 
HETATM   14  C25         0      40.403  24.155 241.337  1.00  0.00     0.352 A 
HETATM   15  O5          0      41.059  25.010 240.376  1.00  0.00    -0.323 OA
HETATM   16  C21         0      43.142  24.894 238.984  1.00  0.00     0.040 A 
HETATM   17  C17         0      44.200  24.117 238.699  1.00  0.00     0.012 A 
ENDBRANCH   5   9
BRANCH   6  18
HETATM   18  C14         0      48.443  18.607 239.097  1.00  0.00    -0.026 A 
HETATM   19  C18         0      49.805  19.083 238.681  1.00  0.00     0.012 A 
HETATM   20  C22         0      50.804  18.217 238.440  1.00  0.00     0.040 A 
HETATM   21  C24         0      50.512  16.798 238.591  1.00  0.00     0.105 A 
HETATM   22  O6          0      51.372  15.776 238.404  1.00  0.00    -0.323 OA
HETATM   23  C20         0      49.354  16.373 238.933  1.00  0.00     0.105 A 
HETATM   24  C26         0      50.670  14.542 238.667  1.00  0.00     0.352 A 
HETATM   25  O4          0      49.347  15.022 239.005  1.00  0.00    -0.323 OA
HETATM   26  C16         0      48.228  17.279 239.228  1.00  0.00     0.049 A 
ENDBRANCH   6  18
TORSDOF 2
ENDMDL
MODEL 5
REMARK VINA RESULT:    -4.019      1.281      8.879
REMARK INTER + INTRA:          -4.676
REMARK INTER:                  -4.350
REMARK INTRA:                  -0.326
REMARK UNBOUND:                -0.187
REMARK  2 active torsions:
REMARK  status: ('A' for Active; 'I' for Inactive)
REMARK    1  A    between atoms: C9_9  and  C13_13 
REMARK    2  A    between atoms: C10_10  and  C14_14 
ROOT
HETATM    1  O1          0      45.893  20.091 240.905  1.00  0.00    -0.380 OA
HETATM    2  O2          0      48.234  20.908 237.487  1.00  0.00    -0.380 OA
HETATM    3  C7          0      46.111  20.568 238.659  1.00  0.00     0.052 C 
HETATM    4  C8          0      47.020  19.471 238.822  1.00  0.00     0.052 C 
HETATM    5  C9          0      46.117  21.266 240.049  1.00  0.00     0.161 C 
HETATM    6  C10         0      48.424  20.135 238.724  1.00  0.00     0.161 C 
HETATM    7  C11         0      46.510  18.879 240.172  1.00  0.00     0.176 C 
HETATM    8  C12         0      46.733  21.268 237.412  1.00  0.00     0.176 C 
ENDROOT
BRANCH   5   9
HETATM    9  C13         0      44.990  22.343 240.155  1.00  0.00    -0.026 A 
HETATM   10  C15         0      43.879  22.048 240.866  1.00  0.00     0.049 A 
HETATM   11  C19         0      42.782  23.035 240.859  1.00  0.00     0.105 A 
HETATM   12  O3          0      41.596  22.933 241.498  1.00  0.00    -0.323 OA
HETATM   13  C23         0      42.839  24.125 240.189  1.00  0.00     0.105 A 
HETATM   14  C25         0      40.808  24.107 241.189  1.00  0.00     0.352 A 
HETATM   15  O5          0      41.703  24.841 240.327  1.00  0.00    -0.323 OA
HETATM   16  C21         0      44.007  24.491 239.401  1.00  0.00     0.040 A 
HETATM   17  C17         0      45.041  23.633 239.390  1.00  0.00     0.012 A 
ENDBRANCH   5   9
BRANCH   6  18
HETATM   18  C14         0      49.557  19.064 238.625  1.00  0.00    -0.026 A 
HETATM   19  C18         0      51.004  19.440 238.485  1.00  0.00     0.012 A 
HETATM   20  C22         0      51.974  18.511 238.522  1.00  0.00     0.040 A 
HETATM   21  C24         0      51.565  17.123 238.694  1.00  0.00     0.105 A 
HETATM   22  O6          0      52.378  16.048 238.763  1.00  0.00    -0.323 OA
HETATM   23  C20         0      50.337  16.782 238.803  1.00  0.00     0.105 A 
HETATM   24  C26         0      51.559  14.873 238.944  1.00  0.00     0.352 A 
HETATM   25  O4          0      50.228  15.442 238.956  1.00  0.00    -0.323 OA
HETATM   26  C16         0      49.234  17.762 238.789  1.00  0.00     0.049 A 
ENDBRANCH   6  18
TORSDOF 2
ENDMDL
MODEL 6
REMARK VINA RESULT:    -4.012      1.266      2.011
REMARK INTER + INTRA:          -4.668
REMARK INTER:                  -4.330
REMARK INTRA:                  -0.338
REMARK UNBOUND:                -0.187
REMARK  2 active torsions:
REMARK  status: ('A' for Active; 'I' for Inactive)
REMARK    1  A    between atoms: C9_9  and  C13_13 
REMARK    2  A    between atoms: C10_10  and  C14_14 
ROOT
HETATM    1  O1          0      48.224  20.888 237.486  1.00  0.00    -0.380 OA
HETATM    2  O2          0      45.872  20.133 240.910  1.00  0.00    -0.380 OA
HETATM    3  C7          0      46.985  19.481 238.829  1.00  0.00     0.052 C 
HETATM    4  C8          0      46.098  20.594 238.661  1.00  0.00     0.052 C 
HETATM    5  C9          0      48.402  20.116 238.726  1.00  0.00     0.161 C 
HETATM    6  C10         0      46.120  21.299 240.048  1.00  0.00     0.161 C 
HETATM    7  C11         0      46.730  21.276 237.410  1.00  0.00     0.176 C 
HETATM    8  C12         0      46.466  18.907 240.183  1.00  0.00     0.176 C 
ENDROOT
BRANCH   5   9
HETATM    9  C13         0      49.514  19.024 238.630  1.00  0.00    -0.026 A 
HETATM   10  C15         0      49.161  17.727 238.778  1.00  0.00     0.049 A 
HETATM   11  C19         0      50.242  16.723 238.795  1.00  0.00     0.105 A 
HETATM   12  O3          0      50.104  15.386 238.934  1.00  0.00    -0.323 OA
HETATM   13  C23         0      51.480  17.040 238.705  1.00  0.00     0.105 A 
HETATM   14  C25         0      51.422  14.788 238.933  1.00  0.00     0.352 A 
HETATM   15  O5          0      52.269  15.947 238.772  1.00  0.00    -0.323 OA
HETATM   16  C21         0      51.918  18.420 238.550  1.00  0.00     0.040 A 
HETATM   17  C17         0      50.969  19.370 238.510  1.00  0.00     0.012 A 
ENDBRANCH   5   9
BRANCH   6  18
HETATM   18  C14         0      45.014  22.398 240.149  1.00  0.00    -0.026 A 
HETATM   19  C18         0      45.095  23.688 239.386  1.00  0.00     0.012 A 
HETATM   20  C22         0      44.080  24.569 239.392  1.00  0.00     0.040 A 
HETATM   21  C24         0      42.900  24.225 240.174  1.00  0.00     0.105 A 
HETATM   22  O6          0      41.779  24.964 240.305  1.00  0.00    -0.323 OA
HETATM   23  C20         0      42.818  23.137 240.841  1.00  0.00     0.105 A 
HETATM   24  C26         0      40.864  24.249 241.161  1.00  0.00     0.352 A 
HETATM   25  O4          0      41.625  23.058 241.474  1.00  0.00    -0.323 OA
HETATM   26  C16         0      43.893  22.127 240.854  1.00  0.00     0.049 A 
ENDBRANCH   6  18
TORSDOF 2
ENDMDL
MODEL 7
REMARK VINA RESULT:    -3.767      5.391      7.196
REMARK INTER + INTRA:          -4.394
REMARK INTER:                  -3.811
REMARK INTRA:                  -0.583
REMARK UNBOUND:                -0.187
REMARK  2 active torsions:
REMARK  status: ('A' for Active; 'I' for Inactive)
REMARK    1  A    between atoms: C9_9  and  C13_13 
REMARK    2  A    between atoms: C10_10  and  C14_14 
ROOT
HETATM    1  O1          0      45.549  22.182 241.017  1.00  0.00    -0.380 OA
HETATM    2  O2          0      41.775  23.913 241.785  1.00  0.00    -0.380 OA
HETATM    3  C7          0      43.363  22.050 241.741  1.00  0.00     0.052 C 
HETATM    4  C8          0      43.218  22.690 240.466  1.00  0.00     0.052 C 
HETATM    5  C9          0      44.772  22.500 242.225  1.00  0.00     0.161 C 
HETATM    6  C10         0      42.863  24.161 240.827  1.00  0.00     0.161 C 
HETATM    7  C11         0      44.591  22.338 239.815  1.00  0.00     0.176 C 
HETATM    8  C12         0      42.074  22.556 242.459  1.00  0.00     0.176 C 
ENDROOT
BRANCH   5   9
HETATM    9  C13         0      45.224  21.702 243.490  1.00  0.00    -0.026 A 
HETATM   10  C15         0      44.770  22.096 244.700  1.00  0.00     0.049 A 
HETATM   11  C19         0      45.299  21.399 245.888  1.00  0.00     0.105 A 
HETATM   12  O3          0      44.978  21.640 247.178  1.00  0.00    -0.323 OA
HETATM   13  C23         0      46.177  20.470 245.809  1.00  0.00     0.105 A 
HETATM   14  C25         0      45.756  20.751 248.016  1.00  0.00     0.352 A 
HETATM   15  O5          0      46.514  20.012 247.033  1.00  0.00    -0.323 OA
HETATM   16  C21         0      46.706  20.009 244.533  1.00  0.00     0.040 A 
HETATM   17  C17         0      46.242  20.602 243.420  1.00  0.00     0.012 A 
ENDBRANCH   5   9
BRANCH   6  18
HETATM   18  C14         0      42.415  24.967 239.566  1.00  0.00    -0.026 A 
HETATM   19  C18         0      41.039  24.838 238.980  1.00  0.00     0.012 A 
HETATM   20  C22         0      40.634  25.626 237.969  1.00  0.00     0.040 A 
HETATM   21  C24         0      41.585  26.606 237.461  1.00  0.00     0.105 A 
HETATM   22  O6          0      41.373  27.490 236.463  1.00  0.00    -0.323 OA
HETATM   23  C20         0      42.765  26.723 237.940  1.00  0.00     0.105 A 
HETATM   24  C26         0      42.573  28.272 236.291  1.00  0.00     0.352 A 
HETATM   25  O4          0      43.443  27.702 237.298  1.00  0.00    -0.323 OA
HETATM   26  C16         0      43.256  25.898 239.060  1.00  0.00     0.049 A 
ENDBRANCH   6  18
TORSDOF 2
ENDMDL
MODEL 8
REMARK VINA RESULT:    -3.737      5.402      9.795
REMARK INTER + INTRA:          -4.361
REMARK INTER:                  -3.773
REMARK INTRA:                  -0.588
REMARK UNBOUND:                -0.187
REMARK  2 active torsions:
REMARK  status: ('A' for Active; 'I' for Inactive)
REMARK    1  A    between atoms: C9_9  and  C13_13 
REMARK    2  A    between atoms: C10_10  and  C14_14 
ROOT
HETATM    1  O1          0      41.756  23.932 241.762  1.00  0.00    -0.380 OA
HETATM    2  O2          0      45.534  22.207 241.004  1.00  0.00    -0.380 OA
HETATM    3  C7          0      43.204  22.711 240.447  1.00  0.00     0.052 C 
HETATM    4  C8          0      43.347  22.072 241.722  1.00  0.00     0.052 C 
HETATM    5  C9          0      42.845  24.182 240.805  1.00  0.00     0.161 C 
HETATM    6  C10         0      44.753  22.525 242.209  1.00  0.00     0.161 C 
HETATM    7  C11         0      42.055  22.575 242.437  1.00  0.00     0.176 C 
HETATM    8  C12         0      44.579  22.361 239.800  1.00  0.00     0.176 C 
ENDROOT
BRANCH   5   9
HETATM    9  C13         0      42.398  24.986 239.543  1.00  0.00    -0.026 A 
HETATM   10  C15         0      43.234  25.924 239.045  1.00  0.00     0.049 A 
HETATM   11  C19         0      42.745  26.747 237.922  1.00  0.00     0.105 A 
HETATM   12  O3          0      43.417  27.733 237.287  1.00  0.00    -0.323 OA
HETATM   13  C23         0      41.567  26.621 237.436  1.00  0.00     0.105 A 
HETATM   14  C25         0      42.550  28.298 236.275  1.00  0.00     0.352 A 
HETATM   15  O5          0      41.355  27.505 236.437  1.00  0.00    -0.323 OA
HETATM   16  C21         0      40.622  25.633 237.937  1.00  0.00     0.040 A 
HETATM   17  C17         0      41.028  24.846 238.948  1.00  0.00     0.012 A 
ENDBRANCH   5   9
BRANCH   6  18
HETATM   18  C14         0      45.204  21.729 243.475  1.00  0.00    -0.026 A 
HETATM   19  C18         0      46.210  20.617 243.406  1.00  0.00     0.012 A 
HETATM   20  C22         0      46.674  20.024 244.519  1.00  0.00     0.040 A 
HETATM   21  C24         0      46.157  20.499 245.796  1.00  0.00     0.105 A 
HETATM   22  O6          0      46.497  20.045 247.020  1.00  0.00    -0.323 OA
HETATM   23  C20         0      45.291  21.437 245.874  1.00  0.00     0.105 A 
HETATM   24  C26         0      45.754  20.796 248.003  1.00  0.00     0.352 A 
HETATM   25  O4          0      44.980  21.689 247.167  1.00  0.00    -0.323 OA
HETATM   26  C16         0      44.762  22.134 244.687  1.00  0.00     0.049 A 
ENDBRANCH   6  18
TORSDOF 2
ENDMDL
MODEL 9
REMARK VINA RESULT:    -3.202      1.728      9.100
REMARK INTER + INTRA:          -3.763
REMARK INTER:                  -3.083
REMARK INTRA:                  -0.680
REMARK UNBOUND:                -0.187
REMARK  2 active torsions:
REMARK  status: ('A' for Active; 'I' for Inactive)
REMARK    1  A    between atoms: C9_9  and  C13_13 
REMARK    2  A    between atoms: C10_10  and  C14_14 
ROOT
HETATM    1  O1          0      46.375  22.818 240.552  1.00  0.00    -0.380 OA
HETATM    2  O2          0      46.152  18.848 239.131  1.00  0.00    -0.380 OA
HETATM    3  C7          0      45.628  20.642 240.713  1.00  0.00     0.052 C 
HETATM    4  C8          0      47.037  20.461 240.522  1.00  0.00     0.052 C 
HETATM    5  C9          0      45.319  21.975 239.970  1.00  0.00     0.161 C 
HETATM    6  C10         0      47.149  19.928 239.065  1.00  0.00     0.161 C 
HETATM    7  C11         0      47.558  21.884 240.892  1.00  0.00     0.176 C 
HETATM    8  C12         0      45.091  19.283 240.167  1.00  0.00     0.176 C 
ENDROOT
BRANCH   5   9
HETATM    9  C13         0      43.874  22.480 240.277  1.00  0.00    -0.026 A 
HETATM   10  C15         0      43.270  23.295 239.383  1.00  0.00     0.049 A 
HETATM   11  C19         0      41.952  23.849 239.746  1.00  0.00     0.105 A 
HETATM   12  O3          0      41.188  24.678 239.001  1.00  0.00    -0.323 OA
HETATM   13  C23         0      41.388  23.608 240.870  1.00  0.00     0.105 A 
HETATM   14  C25         0      39.995  25.000 239.753  1.00  0.00     0.352 A 
HETATM   15  O5          0      40.204  24.250 240.969  1.00  0.00    -0.323 OA
HETATM   16  C21         0      41.993  22.743 241.873  1.00  0.00     0.040 A 
HETATM   17  C17         0      43.187  22.199 241.582  1.00  0.00     0.012 A 
ENDBRANCH   5   9
BRANCH   6  18
HETATM   18  C14         0      48.594  19.426 238.749  1.00  0.00    -0.026 A 
HETATM   19  C18         0      49.678  20.353 238.279  1.00  0.00     0.012 A 
HETATM   20  C22         0      50.944  19.927 238.127  1.00  0.00     0.040 A 
HETATM   21  C24         0      51.221  18.528 238.428  1.00  0.00     0.105 A 
HETATM   22  O6          0      52.417  17.910 238.347  1.00  0.00    -0.323 OA
HETATM   23  C20         0      50.308  17.721 238.818  1.00  0.00     0.105 A 
HETATM   24  C26         0      52.241  16.533 238.741  1.00  0.00     0.352 A 
HETATM   25  O4          0      50.824  16.489 239.032  1.00  0.00    -0.323 OA
HETATM   26  C16         0      48.908  18.139 239.020  1.00  0.00     0.049 A 
ENDBRANCH   6  18
TORSDOF 2
ENDMDL
