MODEL 1
REMARK VINA RESULT:    -7.001      0.000      0.000
REMARK INTER + INTRA:          -7.819
REMARK INTER:                  -7.819
REMARK INTRA:                   0.000
REMARK UNBOUND:                 0.000
REMARK  Name = HEMCA.pdb
REMARK  4 active torsions:
REMARK  status: ('A' for Active; 'I' for Inactive)
REMARK    1  A    between atoms: C5_5  and  O19_19
REMARK    2  A    between atoms: C6_6  and  O18_18
REMARK    3  A    between atoms: C7_7  and  O20_20
REMARK    4  A    between atoms: C17_17  and  O21_21
REMARK                            x       y       z     vdW  Elec       q    Type
REMARK                         _______ _______ _______ _____ _____    ______ ____
ROOT
ATOM      1  C1  UNK H   1     -14.543 -48.665 -22.034  0.00  0.00    +0.000 A 
ATOM      2  C2  UNK H   1     -15.723 -48.112 -21.755  0.00  0.00    +0.000 A 
ATOM      3  C3  UNK H   1     -14.016 -49.745 -21.176  0.00  0.00    +0.000 A 
ATOM      4  C4  UNK H   1     -16.489 -48.565 -20.593  0.00  0.00    +0.000 A 
ATOM      5  C5  UNK H   1     -14.712 -50.143 -20.113  0.00  0.00    +0.000 A 
ATOM      6  C6  UNK H   1     -16.003 -49.524 -19.807  0.00  0.00    +0.000 A 
ATOM      7  C7  UNK H   1     -12.318 -48.766 -23.228  0.00  0.00    +0.000 C 
ATOM      8  C8  UNK H   1     -13.688 -48.232 -23.144  0.00  0.00    +0.000 C 
ATOM      9  C9  UNK H   1     -12.196 -50.215 -22.760  0.00  0.00    +0.000 C 
ATOM     10  O10 UNK H   1     -12.809 -50.372 -21.484  0.00  0.00    +0.000 OA
ATOM     11  C11 UNK H   1     -11.823 -48.421 -24.669  0.00  0.00    +0.000 C 
ATOM     12  C12 UNK H   1     -12.746 -47.268 -24.941  0.00  0.00    +0.000 C 
ATOM     13  C13 UNK H   1     -13.876 -47.300 -24.079  0.00  0.00    +0.000 C 
ATOM     14  C14 UNK H   1     -12.640 -46.400 -25.939  0.00  0.00    +0.000 C 
ATOM     15  C15 UNK H   1     -13.730 -45.427 -26.120  0.00  0.00    +0.000 C 
ATOM     16  C16 UNK H   1     -15.018 -46.413 -24.290  0.00  0.00    +0.000 C 
ATOM     17  C17 UNK H   1     -14.943 -45.506 -25.267  0.00  0.00    +0.000 C 
ATOM     18  O22 UNK H   1     -13.661 -44.581 -27.018  0.00  0.00    +0.000 OA
ENDROOT
BRANCH   6  19
ATOM     19  O18 UNK H   1     -16.731 -49.951 -18.701  0.00  0.00    +0.000 OA
ATOM     20  H9  UNK H   1     -17.751 -49.750 -18.855  0.00  0.00    +0.000 HD
ENDBRANCH   6  19
BRANCH   5  21
ATOM     21  O19 UNK H   1     -14.222 -51.164 -19.308  0.00  0.00    +0.000 OA
ATOM     22  H10 UNK H   1     -14.346 -52.086 -19.796  0.00  0.00    +0.000 HD
ENDBRANCH   5  21
BRANCH   7  23
ATOM     23  O20 UNK H   1     -11.595 -47.937 -22.315  0.00  0.00    +0.000 OA
ATOM     24  H11 UNK H   1     -11.231 -47.092 -22.821  0.00  0.00    +0.000 HD
ENDBRANCH   7  23
BRANCH  17  25
ATOM     25  O21 UNK H   1     -16.003 -44.635 -25.486  0.00  0.00    +0.000 OA
ATOM     26  H12 UNK H   1     -15.786 -44.019 -26.308  0.00  0.00    +0.000 HD
ENDBRANCH  17  25
TORSDOF 4
ENDMDL
MODEL 2
REMARK VINA RESULT:    -6.725      1.941      3.489
REMARK INTER + INTRA:          -7.511
REMARK INTER:                  -7.511
REMARK INTRA:                   0.000
REMARK UNBOUND:                 0.000
REMARK  Name = HEMCA.pdb
REMARK  4 active torsions:
REMARK  status: ('A' for Active; 'I' for Inactive)
REMARK    1  A    between atoms: C5_5  and  O19_19
REMARK    2  A    between atoms: C6_6  and  O18_18
REMARK    3  A    between atoms: C7_7  and  O20_20
REMARK    4  A    between atoms: C17_17  and  O21_21
REMARK                            x       y       z     vdW  Elec       q    Type
REMARK                         _______ _______ _______ _____ _____    ______ ____
ROOT
ATOM      1  C1  UNK H   1     -12.788 -49.124 -23.261  0.00  0.00    +0.000 A 
ATOM      2  C2  UNK H   1     -12.068 -49.868 -24.100  0.00  0.00    +0.000 A 
ATOM      3  C3  UNK H   1     -13.153 -49.659 -21.934  0.00  0.00    +0.000 A 
ATOM      4  C4  UNK H   1     -11.650 -51.216 -23.712  0.00  0.00    +0.000 A 
ATOM      5  C5  UNK H   1     -12.782 -50.891 -21.593  0.00  0.00    +0.000 A 
ATOM      6  C6  UNK H   1     -11.999 -51.706 -22.523  0.00  0.00    +0.000 A 
ATOM      7  C7  UNK H   1     -14.255 -47.151 -22.676  0.00  0.00    +0.000 C 
ATOM      8  C8  UNK H   1     -13.294 -47.788 -23.593  0.00  0.00    +0.000 C 
ATOM      9  C9  UNK H   1     -13.999 -47.469 -21.204  0.00  0.00    +0.000 C 
ATOM     10  O10 UNK H   1     -13.861 -48.875 -21.023  0.00  0.00    +0.000 OA
ATOM     11  C11 UNK H   1     -14.301 -45.648 -23.100  0.00  0.00    +0.000 C 
ATOM     12  C12 UNK H   1     -13.826 -45.811 -24.515  0.00  0.00    +0.000 C 
ATOM     13  C13 UNK H   1     -13.141 -47.044 -24.689  0.00  0.00    +0.000 C 
ATOM     14  C14 UNK H   1     -13.881 -44.890 -25.470  0.00  0.00    +0.000 C 
ATOM     15  C15 UNK H   1     -13.229 -45.194 -26.753  0.00  0.00    +0.000 C 
ATOM     16  C16 UNK H   1     -12.402 -47.337 -25.915  0.00  0.00    +0.000 C 
ATOM     17  C17 UNK H   1     -12.452 -46.450 -26.911  0.00  0.00    +0.000 C 
ATOM     18  O22 UNK H   1     -13.279 -44.379 -27.681  0.00  0.00    +0.000 OA
ENDROOT
BRANCH   6  19
ATOM     19  O18 UNK H   1     -11.604 -52.988 -22.158  0.00  0.00    +0.000 OA
ATOM     20  H9  UNK H   1     -12.267 -53.367 -21.437  0.00  0.00    +0.000 HD
ENDBRANCH   6  19
BRANCH   5  21
ATOM     21  O19 UNK H   1     -13.117 -51.394 -20.342  0.00  0.00    +0.000 OA
ATOM     22  H10 UNK H   1     -14.086 -51.080 -20.085  0.00  0.00    +0.000 HD
ENDBRANCH   5  21
BRANCH   7  23
ATOM     23  O20 UNK H   1     -15.499 -47.743 -23.054  0.00  0.00    +0.000 OA
ATOM     24  H11 UNK H   1     -15.630 -47.651 -24.092  0.00  0.00    +0.000 HD
ENDBRANCH   7  23
BRANCH  17  25
ATOM     25  O21 UNK H   1     -11.775 -46.703 -28.098  0.00  0.00    +0.000 OA
ATOM     26  H12 UNK H   1     -11.718 -45.820 -28.664  0.00  0.00    +0.000 HD
ENDBRANCH  17  25
TORSDOF 4
ENDMDL
MODEL 3
REMARK VINA RESULT:    -6.456      2.276      6.723
REMARK INTER + INTRA:          -7.211
REMARK INTER:                  -7.211
REMARK INTRA:                   0.000
REMARK UNBOUND:                 0.000
REMARK  Name = HEMCA.pdb
REMARK  4 active torsions:
REMARK  status: ('A' for Active; 'I' for Inactive)
REMARK    1  A    between atoms: C5_5  and  O19_19
REMARK    2  A    between atoms: C6_6  and  O18_18
REMARK    3  A    between atoms: C7_7  and  O20_20
REMARK    4  A    between atoms: C17_17  and  O21_21
REMARK                            x       y       z     vdW  Elec       q    Type
REMARK                         _______ _______ _______ _____ _____    ______ ____
ROOT
ATOM      1  C1  UNK H   1     -13.580 -48.544 -22.218  0.00  0.00    +0.000 A 
ATOM      2  C2  UNK H   1     -13.134 -49.120 -23.334  0.00  0.00    +0.000 A 
ATOM      3  C3  UNK H   1     -14.038 -47.140 -22.249  0.00  0.00    +0.000 A 
ATOM      4  C4  UNK H   1     -13.085 -48.360 -24.583  0.00  0.00    +0.000 A 
ATOM      5  C5  UNK H   1     -13.979 -46.451 -23.386  0.00  0.00    +0.000 A 
ATOM      6  C6  UNK H   1     -13.478 -47.087 -24.606  0.00  0.00    +0.000 A 
ATOM      7  C7  UNK H   1     -13.920 -48.416 -19.717  0.00  0.00    +0.000 C 
ATOM      8  C8  UNK H   1     -13.610 -49.215 -20.914  0.00  0.00    +0.000 C 
ATOM      9  C9  UNK H   1     -14.941 -47.308 -19.968  0.00  0.00    +0.000 C 
ATOM     10  O10 UNK H   1     -14.559 -46.538 -21.104  0.00  0.00    +0.000 OA
ATOM     11  C11 UNK H   1     -14.233 -49.455 -18.592  0.00  0.00    +0.000 C 
ATOM     12  C12 UNK H   1     -13.489 -50.625 -19.170  0.00  0.00    +0.000 C 
ATOM     13  C13 UNK H   1     -13.268 -50.456 -20.564  0.00  0.00    +0.000 C 
ATOM     14  C14 UNK H   1     -13.193 -51.753 -18.537  0.00  0.00    +0.000 C 
ATOM     15  C15 UNK H   1     -12.587 -52.840 -19.322  0.00  0.00    +0.000 C 
ATOM     16  C16 UNK H   1     -12.759 -51.548 -21.391  0.00  0.00    +0.000 C 
ATOM     17  C17 UNK H   1     -12.423 -52.692 -20.790  0.00  0.00    +0.000 C 
ATOM     18  O22 UNK H   1     -12.267 -53.898 -18.769  0.00  0.00    +0.000 OA
ENDROOT
BRANCH   6  19
ATOM     19  O18 UNK H   1     -13.428 -46.366 -25.794  0.00  0.00    +0.000 OA
ATOM     20  H9  UNK H   1     -13.957 -45.466 -25.680  0.00  0.00    +0.000 HD
ENDBRANCH   6  19
BRANCH   5  21
ATOM     21  O19 UNK H   1     -14.416 -45.132 -23.420  0.00  0.00    +0.000 OA
ATOM     22  H10 UNK H   1     -15.465 -45.111 -23.466  0.00  0.00    +0.000 HD
ENDBRANCH   5  21
BRANCH   7  23
ATOM     23  O20 UNK H   1     -12.665 -47.808 -19.404  0.00  0.00    +0.000 OA
ATOM     24  H11 UNK H   1     -12.147 -47.595 -20.292  0.00  0.00    +0.000 HD
ENDBRANCH   7  23
BRANCH  17  25
ATOM     25  O21 UNK H   1     -11.919 -53.746 -21.542  0.00  0.00    +0.000 OA
ATOM     26  H12 UNK H   1     -12.170 -54.656 -21.082  0.00  0.00    +0.000 HD
ENDBRANCH  17  25
TORSDOF 4
ENDMDL
MODEL 4
REMARK VINA RESULT:    -6.352      1.913      6.647
REMARK INTER + INTRA:          -7.095
REMARK INTER:                  -7.095
REMARK INTRA:                   0.000
REMARK UNBOUND:                 0.000
REMARK  Name = HEMCA.pdb
REMARK  4 active torsions:
REMARK  status: ('A' for Active; 'I' for Inactive)
REMARK    1  A    between atoms: C5_5  and  O19_19
REMARK    2  A    between atoms: C6_6  and  O18_18
REMARK    3  A    between atoms: C7_7  and  O20_20
REMARK    4  A    between atoms: C17_17  and  O21_21
REMARK                            x       y       z     vdW  Elec       q    Type
REMARK                         _______ _______ _______ _____ _____    ______ ____
ROOT
ATOM      1  C1  UNK H   1     -13.005 -46.286 -24.479  0.00  0.00    +0.000 A 
ATOM      2  C2  UNK H   1     -12.857 -47.252 -25.385  0.00  0.00    +0.000 A 
ATOM      3  C3  UNK H   1     -12.688 -44.889 -24.835  0.00  0.00    +0.000 A 
ATOM      4  C4  UNK H   1     -12.368 -46.929 -26.727  0.00  0.00    +0.000 A 
ATOM      5  C5  UNK H   1     -12.232 -44.605 -26.052  0.00  0.00    +0.000 A 
ATOM      6  C6  UNK H   1     -12.062 -45.671 -27.041  0.00  0.00    +0.000 A 
ATOM      7  C7  UNK H   1     -13.357 -45.424 -22.129  0.00  0.00    +0.000 C 
ATOM      8  C8  UNK H   1     -13.435 -46.531 -23.098  0.00  0.00    +0.000 C 
ATOM      9  C9  UNK H   1     -13.664 -44.056 -22.737  0.00  0.00    +0.000 C 
ATOM     10  O10 UNK H   1     -12.889 -43.859 -23.916  0.00  0.00    +0.000 OA
ATOM     11  C11 UNK H   1     -14.208 -45.884 -20.902  0.00  0.00    +0.000 C 
ATOM     12  C12 UNK H   1     -14.130 -47.366 -21.132  0.00  0.00    +0.000 C 
ATOM     13  C13 UNK H   1     -13.785 -47.659 -22.480  0.00  0.00    +0.000 C 
ATOM     14  C14 UNK H   1     -14.477 -48.311 -20.267  0.00  0.00    +0.000 C 
ATOM     15  C15 UNK H   1     -14.466 -49.706 -20.736  0.00  0.00    +0.000 C 
ATOM     16  C16 UNK H   1     -13.857 -49.022 -23.003  0.00  0.00    +0.000 C 
ATOM     17  C17 UNK H   1     -14.176 -50.007 -22.161  0.00  0.00    +0.000 C 
ATOM     18  O22 UNK H   1     -14.752 -50.622 -19.957  0.00  0.00    +0.000 OA
ENDROOT
BRANCH   6  19
ATOM     19  O18 UNK H   1     -11.595 -45.368 -28.315  0.00  0.00    +0.000 OA
ATOM     20  H9  UNK H   1     -10.545 -45.412 -28.323  0.00  0.00    +0.000 HD
ENDBRANCH   6  19
BRANCH   5  21
ATOM     21  O19 UNK H   1     -11.940 -43.289 -26.393  0.00  0.00    +0.000 OA
ATOM     22  H10 UNK H   1     -12.834 -42.764 -26.562  0.00  0.00    +0.000 HD
ENDBRANCH   5  21
BRANCH   7  23
ATOM     23  O20 UNK H   1     -11.984 -45.442 -21.732  0.00  0.00    +0.000 OA
ATOM     24  H11 UNK H   1     -11.395 -45.015 -22.489  0.00  0.00    +0.000 HD
ENDBRANCH   7  23
BRANCH  17  25
ATOM     25  O21 UNK H   1     -14.238 -51.317 -22.619  0.00  0.00    +0.000 OA
ATOM     26  H12 UNK H   1     -14.766 -51.346 -23.527  0.00  0.00    +0.000 HD
ENDBRANCH  17  25
TORSDOF 4
ENDMDL
MODEL 5
REMARK VINA RESULT:    -6.308      1.859      6.164
REMARK INTER + INTRA:          -7.046
REMARK INTER:                  -7.046
REMARK INTRA:                   0.000
REMARK UNBOUND:                 0.000
REMARK  Name = HEMCA.pdb
REMARK  4 active torsions:
REMARK  status: ('A' for Active; 'I' for Inactive)
REMARK    1  A    between atoms: C5_5  and  O19_19
REMARK    2  A    between atoms: C6_6  and  O18_18
REMARK    3  A    between atoms: C7_7  and  O20_20
REMARK    4  A    between atoms: C17_17  and  O21_21
REMARK                            x       y       z     vdW  Elec       q    Type
REMARK                         _______ _______ _______ _____ _____    ______ ____
ROOT
ATOM      1  C1  UNK H   1     -14.061 -45.840 -23.890  0.00  0.00    +0.000 A 
ATOM      2  C2  UNK H   1     -15.255 -45.946 -24.473  0.00  0.00    +0.000 A 
ATOM      3  C3  UNK H   1     -13.064 -44.893 -24.427  0.00  0.00    +0.000 A 
ATOM      4  C4  UNK H   1     -15.571 -45.137 -25.651  0.00  0.00    +0.000 A 
ATOM      5  C5  UNK H   1     -13.353 -44.169 -25.506  0.00  0.00    +0.000 A 
ATOM      6  C6  UNK H   1     -14.663 -44.298 -26.147  0.00  0.00    +0.000 A 
ATOM      7  C7  UNK H   1     -12.234 -46.602 -22.319  0.00  0.00    +0.000 C 
ATOM      8  C8  UNK H   1     -13.644 -46.653 -22.743  0.00  0.00    +0.000 C 
ATOM      9  C9  UNK H   1     -11.595 -45.224 -22.483  0.00  0.00    +0.000 C 
ATOM     10  O10 UNK H   1     -11.830 -44.729 -23.798  0.00  0.00    +0.000 OA
ATOM     11  C11 UNK H   1     -12.202 -47.257 -20.901  0.00  0.00    +0.000 C 
ATOM     12  C12 UNK H   1     -13.456 -48.075 -21.015  0.00  0.00    +0.000 C 
ATOM     13  C13 UNK H   1     -14.301 -47.579 -22.045  0.00  0.00    +0.000 C 
ATOM     14  C14 UNK H   1     -13.837 -49.043 -20.190  0.00  0.00    +0.000 C 
ATOM     15  C15 UNK H   1     -15.172 -49.627 -20.389  0.00  0.00    +0.000 C 
ATOM     16  C16 UNK H   1     -15.668 -48.069 -22.208  0.00  0.00    +0.000 C 
ATOM     17  C17 UNK H   1     -16.083 -49.061 -21.417  0.00  0.00    +0.000 C 
ATOM     18  O22 UNK H   1     -15.558 -50.550 -19.664  0.00  0.00    +0.000 OA
ENDROOT
BRANCH   6  19
ATOM     19  O18 UNK H   1     -14.965 -43.533 -27.268  0.00  0.00    +0.000 OA
ATOM     20  H9  UNK H   1     -15.953 -43.182 -27.197  0.00  0.00    +0.000 HD
ENDBRANCH   6  19
BRANCH   5  21
ATOM     21  O19 UNK H   1     -12.419 -43.272 -26.009  0.00  0.00    +0.000 OA
ATOM     22  H10 UNK H   1     -12.571 -43.148 -27.041  0.00  0.00    +0.000 HD
ENDBRANCH   5  21
BRANCH   7  23
ATOM     23  O20 UNK H   1     -11.595 -47.505 -23.224  0.00  0.00    +0.000 OA
ATOM     24  H11 UNK H   1     -10.770 -47.949 -22.751  0.00  0.00    +0.000 HD
ENDBRANCH   7  23
BRANCH  17  25
ATOM     25  O21 UNK H   1     -17.371 -49.565 -21.555  0.00  0.00    +0.000 OA
ATOM     26  H12 UNK H   1     -18.066 -48.786 -21.439  0.00  0.00    +0.000 HD
ENDBRANCH  17  25
TORSDOF 4
ENDMDL
MODEL 6
REMARK VINA RESULT:    -6.246      2.375      3.607
REMARK INTER + INTRA:          -6.976
REMARK INTER:                  -6.976
REMARK INTRA:                   0.000
REMARK UNBOUND:                 0.000
REMARK  Name = HEMCA.pdb
REMARK  4 active torsions:
REMARK  status: ('A' for Active; 'I' for Inactive)
REMARK    1  A    between atoms: C5_5  and  O19_19
REMARK    2  A    between atoms: C6_6  and  O18_18
REMARK    3  A    between atoms: C7_7  and  O20_20
REMARK    4  A    between atoms: C17_17  and  O21_21
REMARK                            x       y       z     vdW  Elec       q    Type
REMARK                         _______ _______ _______ _____ _____    ______ ____
ROOT
ATOM      1  C1  UNK H   1     -13.519 -46.850 -23.102  0.00  0.00    +0.000 A 
ATOM      2  C2  UNK H   1     -13.795 -48.019 -23.678  0.00  0.00    +0.000 A 
ATOM      3  C3  UNK H   1     -13.796 -46.655 -21.665  0.00  0.00    +0.000 A 
ATOM      4  C4  UNK H   1     -14.385 -49.104 -22.891  0.00  0.00    +0.000 A 
ATOM      5  C5  UNK H   1     -14.344 -47.641 -20.958  0.00  0.00    +0.000 A 
ATOM      6  C6  UNK H   1     -14.654 -48.920 -21.599  0.00  0.00    +0.000 A 
ATOM      7  C7  UNK H   1     -12.916 -44.396 -23.140  0.00  0.00    +0.000 C 
ATOM      8  C8  UNK H   1     -12.981 -45.695 -23.829  0.00  0.00    +0.000 C 
ATOM      9  C9  UNK H   1     -12.597 -44.509 -21.650  0.00  0.00    +0.000 C 
ATOM     10  O10 UNK H   1     -13.462 -45.457 -21.033  0.00  0.00    +0.000 OA
ATOM     11  C11 UNK H   1     -11.984 -43.503 -24.020  0.00  0.00    +0.000 C 
ATOM     12  C12 UNK H   1     -12.156 -44.233 -25.321  0.00  0.00    +0.000 C 
ATOM     13  C13 UNK H   1     -12.633 -45.555 -25.109  0.00  0.00    +0.000 C 
ATOM     14  C14 UNK H   1     -11.781 -43.798 -26.517  0.00  0.00    +0.000 C 
ATOM     15  C15 UNK H   1     -11.904 -44.725 -27.653  0.00  0.00    +0.000 C 
ATOM     16  C16 UNK H   1     -12.676 -46.531 -26.196  0.00  0.00    +0.000 C 
ATOM     17  C17 UNK H   1     -12.334 -46.128 -27.422  0.00  0.00    +0.000 C 
ATOM     18  O22 UNK H   1     -11.595 -44.354 -28.790  0.00  0.00    +0.000 OA
ENDROOT
BRANCH   6  19
ATOM     19  O18 UNK H   1     -15.217 -49.950 -20.854  0.00  0.00    +0.000 OA
ATOM     20  H9  UNK H   1     -15.499 -49.587 -19.910  0.00  0.00    +0.000 HD
ENDBRANCH   6  19
BRANCH   5  21
ATOM     21  O19 UNK H   1     -14.598 -47.463 -19.603  0.00  0.00    +0.000 OA
ATOM     22  H10 UNK H   1     -15.615 -47.638 -19.411  0.00  0.00    +0.000 HD
ENDBRANCH   5  21
BRANCH   7  23
ATOM     23  O20 UNK H   1     -14.247 -43.894 -23.277  0.00  0.00    +0.000 OA
ATOM     24  H11 UNK H   1     -14.785 -44.081 -22.395  0.00  0.00    +0.000 HD
ENDBRANCH   7  23
BRANCH  17  25
ATOM     25  O21 UNK H   1     -12.379 -47.024 -28.483  0.00  0.00    +0.000 OA
ATOM     26  H12 UNK H   1     -13.236 -47.624 -28.398  0.00  0.00    +0.000 HD
ENDBRANCH  17  25
TORSDOF 4
ENDMDL
MODEL 7
REMARK VINA RESULT:    -6.017      1.358      5.904
REMARK INTER + INTRA:          -6.721
REMARK INTER:                  -6.721
REMARK INTRA:                   0.000
REMARK UNBOUND:                 0.000
REMARK  Name = HEMCA.pdb
REMARK  4 active torsions:
REMARK  status: ('A' for Active; 'I' for Inactive)
REMARK    1  A    between atoms: C5_5  and  O19_19
REMARK    2  A    between atoms: C6_6  and  O18_18
REMARK    3  A    between atoms: C7_7  and  O20_20
REMARK    4  A    between atoms: C17_17  and  O21_21
REMARK                            x       y       z     vdW  Elec       q    Type
REMARK                         _______ _______ _______ _____ _____    ______ ____
ROOT
ATOM      1  C1  UNK H   1     -13.692 -47.433 -23.612  0.00  0.00    +0.000 A 
ATOM      2  C2  UNK H   1     -14.509 -46.382 -23.551  0.00  0.00    +0.000 A 
ATOM      3  C3  UNK H   1     -12.822 -47.620 -24.790  0.00  0.00    +0.000 A 
ATOM      4  C4  UNK H   1     -14.554 -45.422 -24.655  0.00  0.00    +0.000 A 
ATOM      5  C5  UNK H   1     -12.877 -46.750 -25.796  0.00  0.00    +0.000 A 
ATOM      6  C6  UNK H   1     -13.784 -45.603 -25.727  0.00  0.00    +0.000 A 
ATOM      7  C7  UNK H   1     -12.849 -49.691 -22.850  0.00  0.00    +0.000 C 
ATOM      8  C8  UNK H   1     -13.627 -48.471 -22.577  0.00  0.00    +0.000 C 
ATOM      9  C9  UNK H   1     -11.595 -49.442 -23.687  0.00  0.00    +0.000 C 
ATOM     10  O10 UNK H   1     -11.922 -48.684 -24.847  0.00  0.00    +0.000 OA
ATOM     11  C11 UNK H   1     -12.674 -50.392 -21.465  0.00  0.00    +0.000 C 
ATOM     12  C12 UNK H   1     -13.853 -49.778 -20.765  0.00  0.00    +0.000 C 
ATOM     13  C13 UNK H   1     -14.274 -48.588 -21.417  0.00  0.00    +0.000 C 
ATOM     14  C14 UNK H   1     -14.367 -50.173 -19.607  0.00  0.00    +0.000 C 
ATOM     15  C15 UNK H   1     -15.431 -49.348 -19.014  0.00  0.00    +0.000 C 
ATOM     16  C16 UNK H   1     -15.260 -47.696 -20.809  0.00  0.00    +0.000 C 
ATOM     17  C17 UNK H   1     -15.822 -48.068 -19.656  0.00  0.00    +0.000 C 
ATOM     18  O22 UNK H   1     -15.960 -49.692 -17.952  0.00  0.00    +0.000 OA
ENDROOT
BRANCH   6  19
ATOM     19  O18 UNK H   1     -13.830 -44.691 -26.776  0.00  0.00    +0.000 OA
ATOM     20  H9  UNK H   1     -14.737 -44.160 -26.739  0.00  0.00    +0.000 HD
ENDBRANCH   6  19
BRANCH   5  21
ATOM     21  O19 UNK H   1     -12.054 -46.918 -26.903  0.00  0.00    +0.000 OA
ATOM     22  H10 UNK H   1     -12.474 -46.428 -27.731  0.00  0.00    +0.000 HD
ENDBRANCH   5  21
BRANCH   7  23
ATOM     23  O20 UNK H   1     -13.755 -50.482 -23.622  0.00  0.00    +0.000 OA
ATOM     24  H11 UNK H   1     -13.677 -51.488 -23.331  0.00  0.00    +0.000 HD
ENDBRANCH   7  23
BRANCH  17  25
ATOM     25  O21 UNK H   1     -16.776 -47.253 -19.057  0.00  0.00    +0.000 OA
ATOM     26  H12 UNK H   1     -17.500 -46.981 -19.767  0.00  0.00    +0.000 HD
ENDBRANCH  17  25
TORSDOF 4
ENDMDL
MODEL 8
REMARK VINA RESULT:    -6.016      2.506      6.327
REMARK INTER + INTRA:          -6.720
REMARK INTER:                  -6.720
REMARK INTRA:                   0.000
REMARK UNBOUND:                 0.000
REMARK  Name = HEMCA.pdb
REMARK  4 active torsions:
REMARK  status: ('A' for Active; 'I' for Inactive)
REMARK    1  A    between atoms: C5_5  and  O19_19
REMARK    2  A    between atoms: C6_6  and  O18_18
REMARK    3  A    between atoms: C7_7  and  O20_20
REMARK    4  A    between atoms: C17_17  and  O21_21
REMARK                            x       y       z     vdW  Elec       q    Type
REMARK                         _______ _______ _______ _____ _____    ______ ____
ROOT
ATOM      1  C1  UNK H   1     -13.560 -48.405 -21.472  0.00  0.00    +0.000 A 
ATOM      2  C2  UNK H   1     -13.715 -47.833 -20.278  0.00  0.00    +0.000 A 
ATOM      3  C3  UNK H   1     -13.753 -47.607 -22.699  0.00  0.00    +0.000 A 
ATOM      4  C4  UNK H   1     -14.089 -46.421 -20.184  0.00  0.00    +0.000 A 
ATOM      5  C5  UNK H   1     -14.106 -46.327 -22.607  0.00  0.00    +0.000 A 
ATOM      6  C6  UNK H   1     -14.284 -45.708 -21.292  0.00  0.00    +0.000 A 
ATOM      7  C7  UNK H   1     -13.306 -50.392 -23.013  0.00  0.00    +0.000 C 
ATOM      8  C8  UNK H   1     -13.242 -49.825 -21.655  0.00  0.00    +0.000 C 
ATOM      9  C9  UNK H   1     -12.864 -49.418 -24.104  0.00  0.00    +0.000 C 
ATOM     10  O10 UNK H   1     -13.542 -48.175 -23.956  0.00  0.00    +0.000 OA
ATOM     11  C11 UNK H   1     -12.574 -51.769 -22.924  0.00  0.00    +0.000 C 
ATOM     12  C12 UNK H   1     -12.740 -52.004 -21.450  0.00  0.00    +0.000 C 
ATOM     13  C13 UNK H   1     -13.014 -50.790 -20.764  0.00  0.00    +0.000 C 
ATOM     14  C14 UNK H   1     -12.519 -53.146 -20.810  0.00  0.00    +0.000 C 
ATOM     15  C15 UNK H   1     -12.597 -53.134 -19.341  0.00  0.00    +0.000 C 
ATOM     16  C16 UNK H   1     -13.003 -50.723 -19.304  0.00  0.00    +0.000 C 
ATOM     17  C17 UNK H   1     -12.811 -51.853 -18.620  0.00  0.00    +0.000 C 
ATOM     18  O22 UNK H   1     -12.428 -54.179 -18.704  0.00  0.00    +0.000 OA
ENDROOT
BRANCH   6  19
ATOM     19  O18 UNK H   1     -14.643 -44.367 -21.200  0.00  0.00    +0.000 OA
ATOM     20  H9  UNK H   1     -14.416 -43.881 -22.104  0.00  0.00    +0.000 HD
ENDBRANCH   6  19
BRANCH   5  21
ATOM     21  O19 UNK H   1     -14.281 -45.572 -23.760  0.00  0.00    +0.000 OA
ATOM     22  H10 UNK H   1     -15.275 -45.239 -23.814  0.00  0.00    +0.000 HD
ENDBRANCH   5  21
BRANCH   7  23
ATOM     23  O20 UNK H   1     -14.700 -50.656 -23.184  0.00  0.00    +0.000 OA
ATOM     24  H11 UNK H   1     -14.858 -51.693 -23.228  0.00  0.00    +0.000 HD
ENDBRANCH   7  23
BRANCH  17  25
ATOM     25  O21 UNK H   1     -12.811 -51.831 -17.231  0.00  0.00    +0.000 OA
ATOM     26  H12 UNK H   1     -12.563 -52.783 -16.865  0.00  0.00    +0.000 HD
ENDBRANCH  17  25
TORSDOF 4
ENDMDL
