MODEL 1
REMARK VINA RESULT:    -7.539      0.000      0.000
REMARK INTER + INTRA:         -11.003
REMARK INTER:                 -10.624
REMARK INTRA:                  -0.379
REMARK UNBOUND:                -0.379
REMARK  Name = KETCA.pdb
REMARK  8 active torsions:
REMARK  status: ('A' for Active; 'I' for Inactive)
REMARK    1  A    between atoms: O5_5  and  C16_16
REMARK    2  A    between atoms: O5_5  and  C24_24
REMARK    3  A    between atoms: N7_7  and  C21_21
REMARK    4  A    between atoms: N9_9  and  C14_14
REMARK    5  A    between atoms: C11_11  and  C14_14
REMARK    6  A    between atoms: C11_11  and  C15_15
REMARK    7  A    between atoms: C12_12  and  C16_16
REMARK    8  A    between atoms: C25_25  and  C36_36
REMARK                            x       y       z     vdW  Elec       q    Type
REMARK                         _______ _______ _______ _____ _____    ______ ____
ROOT
ATOM      1  O3  UNK K   1     -13.636 -48.205 -21.237  0.00  0.00    +0.000 OA
ATOM      2  O4  UNK K   1     -11.595 -47.079 -21.219  0.00  0.00    +0.000 OA
ATOM      3  C11 UNK K   1     -12.573 -47.627 -22.141  0.00  0.00    +0.000 C 
ATOM      4  C12 UNK K   1     -13.109 -48.038 -19.864  0.00  0.00    +0.000 C 
ATOM      5  C13 UNK K   1     -11.608 -48.108 -20.149  0.00  0.00    +0.000 C 
ENDROOT
BRANCH   3   8
ATOM      6 CL1  UNK K   1     -13.863 -44.727 -21.319  0.00  0.00    +0.000 Cl
ATOM      7 CL2  UNK K   1     -14.896 -43.956 -26.510  0.00  0.00    +0.000 Cl
ATOM      8  C15 UNK K   1     -13.229 -46.602 -23.170  0.00  0.00    +0.000 A 
ATOM      9  C22 UNK K   1     -13.731 -45.375 -22.896  0.00  0.00    +0.000 A 
ATOM     10  C23 UNK K   1     -13.197 -47.023 -24.587  0.00  0.00    +0.000 A 
ATOM     11  C32 UNK K   1     -14.291 -44.544 -23.986  0.00  0.00    +0.000 A 
ATOM     12  C33 UNK K   1     -13.707 -46.262 -25.556  0.00  0.00    +0.000 A 
ATOM     13  C34 UNK K   1     -14.255 -44.957 -25.248  0.00  0.00    +0.000 A 
ENDBRANCH   3   8
BRANCH   3  14
ATOM     14  C14 UNK K   1     -11.832 -48.835 -22.887  0.00  0.00    +0.000 C 
BRANCH  14  15
ATOM     15  N9  UNK K   1     -12.426 -50.193 -22.736  0.00  0.00    +0.000 N 
ATOM     16  N10 UNK K   1     -13.878 -51.788 -22.885  0.00  0.00    +0.000 NA
ATOM     17  C28 UNK K   1     -12.034 -51.149 -21.799  0.00  0.00    +0.000 A 
ATOM     18  C29 UNK K   1     -13.592 -50.637 -23.365  0.00  0.00    +0.000 A 
ATOM     19  C35 UNK K   1     -12.919 -52.142 -21.898  0.00  0.00    +0.000 A 
ENDBRANCH  14  15
ENDBRANCH   3  14
BRANCH   4  20
ATOM     20  C16 UNK K   1     -13.768 -49.054 -18.728  0.00  0.00    +0.000 C 
BRANCH  20  21
ATOM     21  O5  UNK K   1     -15.212 -48.759 -18.385  0.00  0.00    +0.000 OA
BRANCH  21  23
ATOM     22  C21 UNK K   1     -18.277 -49.594 -21.474  0.00  0.00    +0.000 A 
ATOM     23  C24 UNK K   1     -16.319 -49.028 -19.391  0.00  0.00    +0.000 A 
ATOM     24  C26 UNK K   1     -18.659 -49.419 -20.195  0.00  0.00    +0.000 A 
ATOM     25  C27 UNK K   1     -16.841 -49.482 -21.780  0.00  0.00    +0.000 A 
ATOM     26  C30 UNK K   1     -17.627 -49.107 -19.093  0.00  0.00    +0.000 A 
ATOM     27  C31 UNK K   1     -15.936 -49.231 -20.819  0.00  0.00    +0.000 A 
BRANCH  22  29
ATOM     28  O6  UNK K   1     -21.989 -52.027 -26.275  0.00  0.00    +0.000 OA
ATOM     29  N7  UNK K   1     -19.238 -49.911 -22.566  0.00  0.00    +0.000 N 
ATOM     30  N8  UNK K   1     -21.013 -50.538 -24.794  0.00  0.00    +0.000 N 
ATOM     31  C17 UNK K   1     -19.964 -51.173 -22.603  0.00  0.00    +0.000 C 
ATOM     32  C18 UNK K   1     -19.446 -48.964 -23.659  0.00  0.00    +0.000 C 
ATOM     33  C19 UNK K   1     -20.308 -51.593 -24.095  0.00  0.00    +0.000 C 
ATOM     34  C20 UNK K   1     -20.847 -49.170 -24.358  0.00  0.00    +0.000 C 
ATOM     35  C25 UNK K   1     -21.863 -50.853 -25.904  0.00  0.00    +0.000 C 
ATOM     36  C36 UNK K   1     -22.636 -49.769 -26.617  0.00  0.00    +0.000 C 
ENDBRANCH  22  29
ENDBRANCH  21  23
ENDBRANCH  20  21
ENDBRANCH   4  20
TORSDOF 7
ENDMDL
MODEL 2
REMARK VINA RESULT:    -5.891      3.782      7.324
REMARK INTER + INTRA:          -8.680
REMARK INTER:                  -8.487
REMARK INTRA:                  -0.194
REMARK UNBOUND:                -0.379
REMARK  Name = KETCA.pdb
REMARK  8 active torsions:
REMARK  status: ('A' for Active; 'I' for Inactive)
REMARK    1  A    between atoms: O5_5  and  C16_16
REMARK    2  A    between atoms: O5_5  and  C24_24
REMARK    3  A    between atoms: N7_7  and  C21_21
REMARK    4  A    between atoms: N9_9  and  C14_14
REMARK    5  A    between atoms: C11_11  and  C14_14
REMARK    6  A    between atoms: C11_11  and  C15_15
REMARK    7  A    between atoms: C12_12  and  C16_16
REMARK    8  A    between atoms: C25_25  and  C36_36
REMARK                            x       y       z     vdW  Elec       q    Type
REMARK                         _______ _______ _______ _____ _____    ______ ____
ROOT
ATOM      1  O3  UNK K   1     -15.101 -50.595 -20.644  0.00  0.00    +0.000 OA
ATOM      2  O4  UNK K   1     -14.826 -49.006 -18.960  0.00  0.00    +0.000 OA
ATOM      3  C11 UNK K   1     -15.655 -49.292 -20.117  0.00  0.00    +0.000 C 
ATOM      4  C12 UNK K   1     -13.919 -50.881 -19.801  0.00  0.00    +0.000 C 
ATOM      5  C13 UNK K   1     -13.497 -49.454 -19.446  0.00  0.00    +0.000 C 
ENDROOT
BRANCH   3   8
ATOM      6 CL1  UNK K   1     -17.929 -49.588 -22.461  0.00  0.00    +0.000 Cl
ATOM      7 CL2  UNK K   1     -21.586 -49.917 -18.571  0.00  0.00    +0.000 Cl
ATOM      8  C15 UNK K   1     -17.220 -49.431 -19.850  0.00  0.00    +0.000 A 
ATOM      9  C22 UNK K   1     -18.196 -49.605 -20.771  0.00  0.00    +0.000 A 
ATOM     10  C23 UNK K   1     -17.617 -49.457 -18.426  0.00  0.00    +0.000 A 
ATOM     11  C32 UNK K   1     -19.606 -49.732 -20.340  0.00  0.00    +0.000 A 
ATOM     12  C33 UNK K   1     -18.892 -49.572 -18.055  0.00  0.00    +0.000 A 
ATOM     13  C34 UNK K   1     -19.930 -49.742 -19.052  0.00  0.00    +0.000 A 
ENDBRANCH   3   8
BRANCH   3  14
ATOM     14  C14 UNK K   1     -15.327 -48.138 -21.177  0.00  0.00    +0.000 C 
BRANCH  14  15
ATOM     15  N9  UNK K   1     -15.240 -46.744 -20.659  0.00  0.00    +0.000 N 
ATOM     16  N10 UNK K   1     -14.522 -44.717 -20.430  0.00  0.00    +0.000 NA
ATOM     17  C28 UNK K   1     -15.737 -46.304 -19.432  0.00  0.00    +0.000 A 
ATOM     18  C29 UNK K   1     -14.473 -45.720 -21.223  0.00  0.00    +0.000 A 
ATOM     19  C35 UNK K   1     -15.309 -45.048 -19.294  0.00  0.00    +0.000 A 
ENDBRANCH  14  15
ENDBRANCH   3  14
BRANCH   4  20
ATOM     20  C16 UNK K   1     -12.805 -51.912 -20.476  0.00  0.00    +0.000 C 
BRANCH  20  21
ATOM     21  O5  UNK K   1     -11.676 -51.223 -21.212  0.00  0.00    +0.000 OA
BRANCH  21  23
ATOM     22  C21 UNK K   1     -12.603 -47.825 -23.900  0.00  0.00    +0.000 A 
ATOM     23  C24 UNK K   1     -11.948 -50.012 -22.089  0.00  0.00    +0.000 A 
ATOM     24  C26 UNK K   1     -11.955 -47.594 -22.743  0.00  0.00    +0.000 A 
ATOM     25  C27 UNK K   1     -12.958 -49.218 -24.218  0.00  0.00    +0.000 A 
ATOM     26  C30 UNK K   1     -11.596 -48.749 -21.788  0.00  0.00    +0.000 A 
ATOM     27  C31 UNK K   1     -12.666 -50.226 -23.380  0.00  0.00    +0.000 A 
BRANCH  22  29
ATOM     28  O6  UNK K   1     -15.344 -43.236 -27.666  0.00  0.00    +0.000 OA
ATOM     29  N7  UNK K   1     -12.981 -46.736 -24.843  0.00  0.00    +0.000 N 
ATOM     30  N8  UNK K   1     -13.791 -44.699 -26.768  0.00  0.00    +0.000 N 
ATOM     31  C17 UNK K   1     -13.910 -45.681 -24.460  0.00  0.00    +0.000 C 
ATOM     32  C18 UNK K   1     -12.451 -46.727 -26.205  0.00  0.00    +0.000 C 
ATOM     33  C19 UNK K   1     -14.697 -45.125 -25.721  0.00  0.00    +0.000 C 
ATOM     34  C20 UNK K   1     -12.468 -45.278 -26.833  0.00  0.00    +0.000 C 
ATOM     35  C25 UNK K   1     -14.206 -43.717 -27.724  0.00  0.00    +0.000 C 
ATOM     36  C36 UNK K   1     -13.258 -43.233 -28.796  0.00  0.00    +0.000 C 
ENDBRANCH  22  29
ENDBRANCH  21  23
ENDBRANCH  20  21
ENDBRANCH   4  20
TORSDOF 7
ENDMDL
