MODEL 1
REMARK VINA RESULT:    -6.585      0.000      0.000
REMARK INTER + INTRA:         -10.404
REMARK INTER:                  -9.664
REMARK INTRA:                  -0.740
REMARK UNBOUND:                -0.740
REMARK  9 active torsions:
REMARK  status: ('A' for Active; 'I' for Inactive)
REMARK    1  A    between atoms: C70_1  and  C1_2 
REMARK    2  A    between atoms: C70_1  and  N12_20 
REMARK    3  A    between atoms: C1_2  and  C2_3 
REMARK    4  A    between atoms: C2_3  and  C3_4 
REMARK    5  A    between atoms: C2_3  and  O5_17 
REMARK       I    between atoms: C3_4  and  N1_6 
REMARK    6  A    between atoms: N1_6  and  C4_7 
REMARK    7  A    between atoms: C4_7  and  C13_8 
REMARK    8  A    between atoms: C4_7  and  C5_10 
REMARK    9  A    between atoms: C13_8  and  C7_9 
ROOT
HETATM    1  C70 BES A 501      21.526   2.540  27.103  1.00  6.08     0.232 C 
ENDROOT
BRANCH   1   2
HETATM    2  C1  BES A 501      22.913   2.633  27.335  1.00  6.71     0.068 C 
BRANCH   2   3
HETATM    3  C2  BES A 501      23.674   1.353  27.478  1.00  9.09     0.205 C 
BRANCH   3   4
HETATM    4  C3  BES A 501      25.133   1.667  27.645  1.00  8.29     0.227 C 
HETATM    5  O3  BES A 501      25.434   2.483  28.487  1.00  7.85    -0.277 OA
HETATM    6  N1  BES A 501      26.116   0.980  26.795  1.00  8.97    -0.246 NA
HETATM    7  H7  BES A 501      25.830   1.200  25.788  1.00  8.27     0.131 HD
BRANCH   6   8
HETATM    8  C4  BES A 501      27.561   1.203  26.851  1.00 10.85     0.169 C 
BRANCH   8   9
HETATM    9  C13 BES A 501      28.249  -0.033  27.437  1.00  8.22     0.089 C 
BRANCH   9  10
HETATM   10  C7  BES A 501      29.602   0.350  28.067  1.00 11.21     0.029 A 
HETATM   11  C21 BES A 501      30.600  -0.620  28.727  1.00  0.00     0.143 A 
HETATM   12  N22 BES A 501      31.809   0.200  29.214  1.00  0.00    -0.254 N 
HETATM   13  C23 BES A 501      31.559   1.677  28.855  1.00  0.00     0.207 A 
HETATM   14  N24 BES A 501      30.194   1.769  28.145  1.00  0.00    -0.353 N 
HETATM   15  H13 BES A 501      29.738   2.662  27.773  1.00  8.23     0.166 HD
ENDBRANCH   9  10
ENDBRANCH   8   9
BRANCH   8  16
HETATM   16  C5  BES A 501      28.039   1.392  25.448  1.00 10.09     0.192 C 
HETATM   17  O1  BES A 501      29.010   2.168  25.226  1.00  5.58    -0.647 OA
HETATM   18  O4  BES A 501      27.464   0.717  24.540  1.00  5.29    -0.647 OA
ENDBRANCH   8  16
ENDBRANCH   6   8
ENDBRANCH   3   4
BRANCH   3  19
HETATM   19  O5  BES A 501      23.181   0.605  28.681  1.00  8.27    -0.387 OA
HETATM   20  H15 BES A 501      22.965  -0.387  28.413  1.00  8.22     0.210 HD
ENDBRANCH   3  19
ENDBRANCH   2   3
ENDBRANCH   1   2
BRANCH   1  21
HETATM   21  N12 BES A 501      20.782   2.653  28.425  1.00  8.22    -0.079 N 
HETATM   22  H14 BES A 501      20.161   1.793  28.560  1.00  8.22     0.274 HD
HETATM   23  H15 BES A 501      20.175   3.534  28.419  1.00  8.22     0.274 HD
HETATM   24  H1  BES A 501      21.488   2.712  29.227  1.00  8.22     0.274 HD
ENDBRANCH   1  21
TORSDOF 9
ENDMDL
MODEL 2
REMARK VINA RESULT:    -6.295      2.332      2.916
REMARK INTER + INTRA:          -9.978
REMARK INTER:                  -8.908
REMARK INTRA:                  -1.070
REMARK UNBOUND:                -0.740
REMARK  9 active torsions:
REMARK  status: ('A' for Active; 'I' for Inactive)
REMARK    1  A    between atoms: C70_1  and  C1_2 
REMARK    2  A    between atoms: C70_1  and  N12_20 
REMARK    3  A    between atoms: C1_2  and  C2_3 
REMARK    4  A    between atoms: C2_3  and  C3_4 
REMARK    5  A    between atoms: C2_3  and  O5_17 
REMARK       I    between atoms: C3_4  and  N1_6 
REMARK    6  A    between atoms: N1_6  and  C4_7 
REMARK    7  A    between atoms: C4_7  and  C13_8 
REMARK    8  A    between atoms: C4_7  and  C5_10 
REMARK    9  A    between atoms: C13_8  and  C7_9 
ROOT
HETATM    1  C70 BES A 501      22.970   2.669  29.223  1.00  6.08     0.232 C 
ENDROOT
BRANCH   1   2
HETATM    2  C1  BES A 501      24.128   2.623  28.421  1.00  6.71     0.068 C 
BRANCH   2   3
HETATM    3  C2  BES A 501      24.730   1.278  28.158  1.00  9.09     0.205 C 
BRANCH   3   4
HETATM    4  C3  BES A 501      26.078   1.209  28.815  1.00  8.29     0.227 C 
HETATM    5  O3  BES A 501      26.118   1.324  30.020  1.00  7.85    -0.277 OA
HETATM    6  N1  BES A 501      27.272   1.003  27.982  1.00  8.97    -0.246 NA
HETATM    7  H7  BES A 501      27.273   1.809  27.278  1.00  8.27     0.131 HD
BRANCH   6   8
HETATM    8  C4  BES A 501      28.639   0.928  28.496  1.00 10.85     0.169 C 
BRANCH   8   9
HETATM    9  C13 BES A 501      29.269  -0.407  28.088  1.00  8.22     0.089 C 
BRANCH   9  10
HETATM   10  C7  BES A 501      29.662  -0.387  26.598  1.00 11.21     0.029 A 
HETATM   11  C21 BES A 501      31.079  -0.600  26.034  1.00  0.00     0.143 A 
HETATM   12  N22 BES A 501      31.000  -0.495  24.500  1.00  0.00    -0.254 N 
HETATM   13  C23 BES A 501      29.535  -0.217  24.116  1.00  0.00     0.207 A 
HETATM   14  N24 BES A 501      28.707  -0.150  25.414  1.00  0.00    -0.353 N 
HETATM   15  H13 BES A 501      27.655   0.029  25.480  1.00  8.23     0.166 HD
ENDBRANCH   9  10
ENDBRANCH   8   9
BRANCH   8  16
HETATM   16  C5  BES A 501      29.418   2.034  27.861  1.00 10.09     0.192 C 
HETATM   17  O1  BES A 501      28.911   2.672  26.896  1.00  5.58    -0.647 OA
HETATM   18  O4  BES A 501      30.551   2.310  28.361  1.00  5.29    -0.647 OA
ENDBRANCH   8  16
ENDBRANCH   6   8
ENDBRANCH   3   4
BRANCH   3  19
HETATM   19  O5  BES A 501      23.841   0.210  28.723  1.00  8.27    -0.387 OA
HETATM   20  H15 BES A 501      23.511   0.498  29.678  1.00  8.22     0.210 HD
ENDBRANCH   3  19
ENDBRANCH   2   3
ENDBRANCH   1   2
BRANCH   1  21
HETATM   21  N12 BES A 501      23.364   2.570  30.689  1.00  8.22    -0.079 N 
HETATM   22  H14 BES A 501      22.592   2.995  31.295  1.00  8.22     0.274 HD
HETATM   23  H15 BES A 501      24.277   3.101  30.850  1.00  8.22     0.274 HD
HETATM   24  H1  BES A 501      23.498   1.542  30.953  1.00  8.22     0.274 HD
ENDBRANCH   1  21
TORSDOF 9
ENDMDL
MODEL 3
REMARK VINA RESULT:    -6.214      1.726      6.804
REMARK INTER + INTRA:          -9.860
REMARK INTER:                  -8.872
REMARK INTRA:                  -0.988
REMARK UNBOUND:                -0.740
REMARK  9 active torsions:
REMARK  status: ('A' for Active; 'I' for Inactive)
REMARK    1  A    between atoms: C70_1  and  C1_2 
REMARK    2  A    between atoms: C70_1  and  N12_20 
REMARK    3  A    between atoms: C1_2  and  C2_3 
REMARK    4  A    between atoms: C2_3  and  C3_4 
REMARK    5  A    between atoms: C2_3  and  O5_17 
REMARK       I    between atoms: C3_4  and  N1_6 
REMARK    6  A    between atoms: N1_6  and  C4_7 
REMARK    7  A    between atoms: C4_7  and  C13_8 
REMARK    8  A    between atoms: C4_7  and  C5_10 
REMARK    9  A    between atoms: C13_8  and  C7_9 
ROOT
HETATM    1  C70 BES A 501      30.815   0.196  26.554  1.00  6.08     0.232 C 
ENDROOT
BRANCH   1   2
HETATM    2  C1  BES A 501      29.650  -0.452  26.096  1.00  6.71     0.068 C 
BRANCH   2   3
HETATM    3  C2  BES A 501      28.874   0.217  25.006  1.00  9.09     0.205 C 
BRANCH   3   4
HETATM    4  C3  BES A 501      27.631   0.823  25.592  1.00  8.29     0.227 C 
HETATM    5  O3  BES A 501      26.855   1.350  24.827  1.00  7.85    -0.277 OA
HETATM    6  N1  BES A 501      27.412   0.745  27.043  1.00  8.97    -0.246 NA
HETATM    7  H7  BES A 501      28.265   1.214  27.488  1.00  8.27     0.131 HD
BRANCH   6   8
HETATM    8  C4  BES A 501      26.252   1.302  27.738  1.00 10.85     0.169 C 
BRANCH   8   9
HETATM    9  C13 BES A 501      25.053   0.364  27.569  1.00  8.22     0.089 C 
BRANCH   9  10
HETATM   10  C7  BES A 501      23.761   1.172  27.345  1.00 11.21     0.029 A 
HETATM   11  C21 BES A 501      23.674   2.693  27.115  1.00  0.00     0.143 A 
HETATM   12  N22 BES A 501      22.189   3.062  26.940  1.00  0.00    -0.254 N 
HETATM   13  C23 BES A 501      21.358   1.771  27.062  1.00  0.00     0.207 A 
HETATM   14  N24 BES A 501      22.331   0.602  27.313  1.00  0.00    -0.353 N 
HETATM   15  H13 BES A 501      22.060  -0.424  27.442  1.00  8.23     0.166 HD
ENDBRANCH   9  10
ENDBRANCH   8   9
BRANCH   8  16
HETATM   16  C5  BES A 501      26.593   1.380  29.190  1.00 10.09     0.192 C 
HETATM   17  O1  BES A 501      25.663   1.408  30.043  1.00  5.58    -0.647 OA
HETATM   18  O4  BES A 501      27.824   1.368  29.500  1.00  5.29    -0.647 OA
ENDBRANCH   8  16
ENDBRANCH   6   8
ENDBRANCH   3   4
BRANCH   3  19
HETATM   19  O5  BES A 501      29.710   1.294  24.381  1.00  8.27    -0.387 OA
HETATM   20  H15 BES A 501      29.307   2.234  24.621  1.00  8.22     0.210 HD
ENDBRANCH   3  19
ENDBRANCH   2   3
ENDBRANCH   1   2
BRANCH   1  21
HETATM   21  N12 BES A 501      30.438   1.242  27.593  1.00  8.22    -0.079 N 
HETATM   22  H14 BES A 501      30.423   2.208  27.135  1.00  8.22     0.274 HD
HETATM   23  H15 BES A 501      31.157   1.233  28.384  1.00  8.22     0.274 HD
HETATM   24  H1  BES A 501      29.469   1.019  27.988  1.00  8.22     0.274 HD
ENDBRANCH   1  21
TORSDOF 9
ENDMDL
MODEL 4
REMARK VINA RESULT:    -6.187      2.326      6.596
REMARK INTER + INTRA:          -9.821
REMARK INTER:                  -8.919
REMARK INTRA:                  -0.902
REMARK UNBOUND:                -0.740
REMARK  9 active torsions:
REMARK  status: ('A' for Active; 'I' for Inactive)
REMARK    1  A    between atoms: C70_1  and  C1_2 
REMARK    2  A    between atoms: C70_1  and  N12_20 
REMARK    3  A    between atoms: C1_2  and  C2_3 
REMARK    4  A    between atoms: C2_3  and  C3_4 
REMARK    5  A    between atoms: C2_3  and  O5_17 
REMARK       I    between atoms: C3_4  and  N1_6 
REMARK    6  A    between atoms: N1_6  and  C4_7 
REMARK    7  A    between atoms: C4_7  and  C13_8 
REMARK    8  A    between atoms: C4_7  and  C5_10 
REMARK    9  A    between atoms: C13_8  and  C7_9 
ROOT
HETATM    1  C70 BES A 501      31.331  -0.696  25.727  1.00  6.08     0.232 C 
ENDROOT
BRANCH   1   2
HETATM    2  C1  BES A 501      30.133  -0.978  25.040  1.00  6.71     0.068 C 
BRANCH   2   3
HETATM    3  C2  BES A 501      29.428   0.170  24.388  1.00  9.09     0.205 C 
BRANCH   3   4
HETATM    4  C3  BES A 501      28.754   0.995  25.447  1.00  8.29     0.227 C 
HETATM    5  O3  BES A 501      28.782   2.198  25.318  1.00  7.85    -0.277 OA
HETATM    6  N1  BES A 501      28.096   0.316  26.573  1.00  8.97    -0.246 NA
HETATM    7  H7  BES A 501      28.857  -0.280  27.033  1.00  8.27     0.131 HD
BRANCH   6   8
HETATM    8  C4  BES A 501      27.416   1.001  27.672  1.00 10.85     0.169 C 
BRANCH   8   9
HETATM    9  C13 BES A 501      26.189   0.191  28.101  1.00  8.22     0.089 C 
BRANCH   9  10
HETATM   10  C7  BES A 501      25.048   1.129  28.541  1.00 11.21     0.029 A 
HETATM   11  C21 BES A 501      23.946   1.701  27.630  1.00  0.00     0.143 A 
HETATM   12  N22 BES A 501      23.027   2.585  28.494  1.00  0.00    -0.254 N 
HETATM   13  C23 BES A 501      23.562   2.560  29.938  1.00  0.00     0.207 A 
HETATM   14  N24 BES A 501      24.812   1.660  29.967  1.00  0.00    -0.353 N 
HETATM   15  H13 BES A 501      25.411   1.441  30.826  1.00  8.23     0.166 HD
ENDBRANCH   9  10
ENDBRANCH   8   9
BRANCH   8  16
HETATM   16  C5  BES A 501      28.369   1.063  28.820  1.00 10.09     0.192 C 
HETATM   17  O1  BES A 501      29.600   0.878  28.612  1.00  5.58    -0.647 OA
HETATM   18  O4  BES A 501      27.890   1.350  29.960  1.00  5.29    -0.647 OA
ENDBRANCH   8  16
ENDBRANCH   6   8
ENDBRANCH   3   4
BRANCH   3  19
HETATM   19  O5  BES A 501      30.420   1.017  23.649  1.00  8.27    -0.387 OA
HETATM   20  H15 BES A 501      30.749   1.796  24.272  1.00  8.22     0.210 HD
ENDBRANCH   3  19
ENDBRANCH   2   3
ENDBRANCH   1   2
BRANCH   1  21
HETATM   21  N12 BES A 501      31.182  -1.089  27.189  1.00  8.22    -0.079 N 
HETATM   22  H14 BES A 501      30.240  -1.574  27.333  1.00  8.22     0.274 HD
HETATM   23  H15 BES A 501      31.230  -0.213  27.800  1.00  8.22     0.274 HD
HETATM   24  H1  BES A 501      31.972  -1.758  27.460  1.00  8.22     0.274 HD
ENDBRANCH   1  21
TORSDOF 9
ENDMDL
MODEL 5
REMARK VINA RESULT:    -6.180      1.645      6.963
REMARK INTER + INTRA:          -9.810
REMARK INTER:                  -9.218
REMARK INTRA:                  -0.592
REMARK UNBOUND:                -0.740
REMARK  9 active torsions:
REMARK  status: ('A' for Active; 'I' for Inactive)
REMARK    1  A    between atoms: C70_1  and  C1_2 
REMARK    2  A    between atoms: C70_1  and  N12_20 
REMARK    3  A    between atoms: C1_2  and  C2_3 
REMARK    4  A    between atoms: C2_3  and  C3_4 
REMARK    5  A    between atoms: C2_3  and  O5_17 
REMARK       I    between atoms: C3_4  and  N1_6 
REMARK    6  A    between atoms: N1_6  and  C4_7 
REMARK    7  A    between atoms: C4_7  and  C13_8 
REMARK    8  A    between atoms: C4_7  and  C5_10 
REMARK    9  A    between atoms: C13_8  and  C7_9 
ROOT
HETATM    1  C70 BES A 501      30.694   0.023  28.608  1.00  6.08     0.232 C 
ENDROOT
BRANCH   1   2
HETATM    2  C1  BES A 501      29.811  -0.770  27.847  1.00  6.71     0.068 C 
BRANCH   2   3
HETATM    3  C2  BES A 501      29.219  -0.153  26.619  1.00  9.09     0.205 C 
BRANCH   3   4
HETATM    4  C3  BES A 501      28.128   0.796  27.026  1.00  8.29     0.227 C 
HETATM    5  O3  BES A 501      28.297   1.972  26.794  1.00  7.85    -0.277 OA
HETATM    6  N1  BES A 501      26.921   0.264  27.675  1.00  8.97    -0.246 NA
HETATM    7  H7  BES A 501      27.267  -0.256  28.544  1.00  8.27     0.131 HD
BRANCH   6   8
HETATM    8  C4  BES A 501      25.795   1.080  28.128  1.00 10.85     0.169 C 
BRANCH   8   9
HETATM    9  C13 BES A 501      24.502   0.263  28.043  1.00  8.22     0.089 C 
BRANCH   9  10
HETATM   10  C7  BES A 501      23.338   1.143  27.548  1.00 11.21     0.029 A 
HETATM   11  C21 BES A 501      23.396   2.661  27.296  1.00  0.00     0.143 A 
HETATM   12  N22 BES A 501      22.007   3.115  26.811  1.00  0.00    -0.254 N 
HETATM   13  C23 BES A 501      21.090   1.878  26.764  1.00  0.00     0.207 A 
HETATM   14  N24 BES A 501      21.914   0.658  27.220  1.00  0.00    -0.353 N 
HETATM   15  H13 BES A 501      21.559  -0.348  27.295  1.00  8.23     0.166 HD
ENDBRANCH   9  10
ENDBRANCH   8   9
BRANCH   8  16
HETATM   16  C5  BES A 501      26.042   1.430  29.559  1.00 10.09     0.192 C 
HETATM   17  O1  BES A 501      25.070   1.771  30.289  1.00  5.58    -0.647 OA
HETATM   18  O4  BES A 501      27.232   1.321  29.988  1.00  5.29    -0.647 OA
ENDBRANCH   8  16
ENDBRANCH   6   8
ENDBRANCH   3   4
BRANCH   3  19
HETATM   19  O5  BES A 501      30.280   0.596  25.869  1.00  8.27    -0.387 OA
HETATM   20  H15 BES A 501      30.723   1.305  26.504  1.00  8.22     0.210 HD
ENDBRANCH   3  19
ENDBRANCH   2   3
ENDBRANCH   1   2
BRANCH   1  21
HETATM   21  N12 BES A 501      30.062   0.332  29.957  1.00  8.22    -0.079 N 
HETATM   22  H14 BES A 501      29.696   1.337  29.957  1.00  8.22     0.274 HD
HETATM   23  H15 BES A 501      30.794   0.219  30.728  1.00  8.22     0.274 HD
HETATM   24  H1  BES A 501      29.250  -0.342  30.134  1.00  8.22     0.274 HD
ENDBRANCH   1  21
TORSDOF 9
ENDMDL
MODEL 6
REMARK VINA RESULT:    -6.084      2.468      6.726
REMARK INTER + INTRA:          -9.669
REMARK INTER:                  -8.699
REMARK INTRA:                  -0.970
REMARK UNBOUND:                -0.740
REMARK  9 active torsions:
REMARK  status: ('A' for Active; 'I' for Inactive)
REMARK    1  A    between atoms: C70_1  and  C1_2 
REMARK    2  A    between atoms: C70_1  and  N12_20 
REMARK    3  A    between atoms: C1_2  and  C2_3 
REMARK    4  A    between atoms: C2_3  and  C3_4 
REMARK    5  A    between atoms: C2_3  and  O5_17 
REMARK       I    between atoms: C3_4  and  N1_6 
REMARK    6  A    between atoms: N1_6  and  C4_7 
REMARK    7  A    between atoms: C4_7  and  C13_8 
REMARK    8  A    between atoms: C4_7  and  C5_10 
REMARK    9  A    between atoms: C13_8  and  C7_9 
ROOT
HETATM    1  C70 BES A 501      31.926  -3.196  29.462  1.00  6.08     0.232 C 
ENDROOT
BRANCH   1   2
HETATM    2  C1  BES A 501      31.621  -2.599  28.222  1.00  6.71     0.068 C 
BRANCH   2   3
HETATM    3  C2  BES A 501      31.381  -1.122  28.210  1.00  9.09     0.205 C 
BRANCH   3   4
HETATM    4  C3  BES A 501      29.928  -0.866  27.926  1.00  8.29     0.227 C 
HETATM    5  O3  BES A 501      29.123  -1.636  28.400  1.00  7.85    -0.277 OA
HETATM    6  N1  BES A 501      29.553   0.292  27.102  1.00  8.97    -0.246 NA
HETATM    7  H7  BES A 501      30.068   0.162  26.172  1.00  8.27     0.131 HD
BRANCH   6   8
HETATM    8  C4  BES A 501      28.179   0.645  26.743  1.00 10.85     0.169 C 
BRANCH   8   9
HETATM    9  C13 BES A 501      27.616   1.629  27.774  1.00  8.22     0.089 C 
BRANCH   9  10
HETATM   10  C7  BES A 501      26.100   1.420  27.948  1.00 11.21     0.029 A 
HETATM   11  C21 BES A 501      25.218   2.060  29.036  1.00  0.00     0.143 A 
HETATM   12  N22 BES A 501      23.773   1.571  28.825  1.00  0.00    -0.254 N 
HETATM   13  C23 BES A 501      23.762   0.628  27.607  1.00  0.00     0.207 A 
HETATM   14  N24 BES A 501      25.201   0.535  27.065  1.00  0.00    -0.353 N 
HETATM   15  H13 BES A 501      25.520  -0.042  26.222  1.00  8.23     0.166 HD
ENDBRANCH   9  10
ENDBRANCH   8   9
BRANCH   8  16
HETATM   16  C5  BES A 501      28.223   1.323  25.414  1.00 10.09     0.192 C 
HETATM   17  O1  BES A 501      29.166   2.123  25.158  1.00  5.58    -0.647 OA
HETATM   18  O4  BES A 501      27.318   1.021  24.576  1.00  5.29    -0.647 OA
ENDBRANCH   8  16
ENDBRANCH   6   8
ENDBRANCH   3   4
BRANCH   3  19
HETATM   19  O5  BES A 501      31.740  -0.543  29.546  1.00  8.27    -0.387 OA
HETATM   20  H15 BES A 501      30.993  -0.784  30.244  1.00  8.22     0.210 HD
ENDBRANCH   3  19
ENDBRANCH   2   3
ENDBRANCH   1   2
BRANCH   1  21
HETATM   21  N12 BES A 501      30.636  -3.514  30.202  1.00  8.22    -0.079 N 
HETATM   22  H14 BES A 501      30.718  -3.189  31.218  1.00  8.22     0.274 HD
HETATM   23  H15 BES A 501      30.461  -4.569  30.179  1.00  8.22     0.274 HD
HETATM   24  H1  BES A 501      29.820  -3.007  29.731  1.00  8.22     0.274 HD
ENDBRANCH   1  21
TORSDOF 9
ENDMDL
MODEL 7
REMARK VINA RESULT:    -6.078      2.572      3.028
REMARK INTER + INTRA:          -9.661
REMARK INTER:                  -8.917
REMARK INTRA:                  -0.744
REMARK UNBOUND:                -0.740
REMARK  9 active torsions:
REMARK  status: ('A' for Active; 'I' for Inactive)
REMARK    1  A    between atoms: C70_1  and  C1_2 
REMARK    2  A    between atoms: C70_1  and  N12_20 
REMARK    3  A    between atoms: C1_2  and  C2_3 
REMARK    4  A    between atoms: C2_3  and  C3_4 
REMARK    5  A    between atoms: C2_3  and  O5_17 
REMARK       I    between atoms: C3_4  and  N1_6 
REMARK    6  A    between atoms: N1_6  and  C4_7 
REMARK    7  A    between atoms: C4_7  and  C13_8 
REMARK    8  A    between atoms: C4_7  and  C5_10 
REMARK    9  A    between atoms: C13_8  and  C7_9 
ROOT
HETATM    1  C70 BES A 501      23.469   2.640  29.602  1.00  6.08     0.232 C 
ENDROOT
BRANCH   1   2
HETATM    2  C1  BES A 501      24.070   2.504  28.335  1.00  6.71     0.068 C 
BRANCH   2   3
HETATM    3  C2  BES A 501      24.147   1.126  27.755  1.00  9.09     0.205 C 
BRANCH   3   4
HETATM    4  C3  BES A 501      25.572   0.654  27.805  1.00  8.29     0.227 C 
HETATM    5  O3  BES A 501      25.883  -0.083  28.714  1.00  7.85    -0.277 OA
HETATM    6  N1  BES A 501      26.510   1.095  26.764  1.00  8.97    -0.246 NA
HETATM    7  H7  BES A 501      26.502   2.165  26.803  1.00  8.27     0.131 HD
BRANCH   6   8
HETATM    8  C4  BES A 501      27.922   0.717  26.705  1.00 10.85     0.169 C 
BRANCH   8   9
HETATM    9  C13 BES A 501      28.392   0.709  25.246  1.00  8.22     0.089 C 
BRANCH   9  10
HETATM   10  C7  BES A 501      29.688  -0.111  25.100  1.00 11.21     0.029 A 
HETATM   11  C21 BES A 501      30.412  -0.431  23.779  1.00  0.00     0.143 A 
HETATM   12  N22 BES A 501      31.659  -1.270  24.112  1.00  0.00    -0.254 N 
HETATM   13  C23 BES A 501      31.706  -1.470  25.639  1.00  0.00     0.207 A 
HETATM   14  N24 BES A 501      30.487  -0.753  26.250  1.00  0.00    -0.353 N 
HETATM   15  H13 BES A 501      30.240  -0.708  27.289  1.00  8.23     0.166 HD
ENDBRANCH   9  10
ENDBRANCH   8   9
BRANCH   8  16
HETATM   16  C5  BES A 501      28.697   1.756  27.447  1.00 10.09     0.192 C 
HETATM   17  O1  BES A 501      28.890   2.883  26.912  1.00  5.58    -0.647 OA
HETATM   18  O4  BES A 501      29.089   1.464  28.618  1.00  5.29    -0.647 OA
ENDBRANCH   8  16
ENDBRANCH   6   8
ENDBRANCH   3   4
BRANCH   3  19
HETATM   19  O5  BES A 501      23.282   0.195  28.551  1.00  8.27    -0.387 OA
HETATM   20  H15 BES A 501      22.493   0.736  28.984  1.00  8.22     0.210 HD
ENDBRANCH   3  19
ENDBRANCH   2   3
ENDBRANCH   1   2
BRANCH   1  21
HETATM   21  N12 BES A 501      24.359   2.002  30.658  1.00  8.22    -0.079 N 
HETATM   22  H14 BES A 501      23.775   1.771  31.524  1.00  8.22     0.274 HD
HETATM   23  H15 BES A 501      25.140   2.681  30.925  1.00  8.22     0.274 HD
HETATM   24  H1  BES A 501      24.787   1.102  30.267  1.00  8.22     0.274 HD
ENDBRANCH   1  21
TORSDOF 9
ENDMDL
MODEL 8
REMARK VINA RESULT:    -6.038      1.789      7.016
REMARK INTER + INTRA:          -9.601
REMARK INTER:                  -8.700
REMARK INTRA:                  -0.901
REMARK UNBOUND:                -0.740
REMARK  9 active torsions:
REMARK  status: ('A' for Active; 'I' for Inactive)
REMARK    1  A    between atoms: C70_1  and  C1_2 
REMARK    2  A    between atoms: C70_1  and  N12_20 
REMARK    3  A    between atoms: C1_2  and  C2_3 
REMARK    4  A    between atoms: C2_3  and  C3_4 
REMARK    5  A    between atoms: C2_3  and  O5_17 
REMARK       I    between atoms: C3_4  and  N1_6 
REMARK    6  A    between atoms: N1_6  and  C4_7 
REMARK    7  A    between atoms: C4_7  and  C13_8 
REMARK    8  A    between atoms: C4_7  and  C5_10 
REMARK    9  A    between atoms: C13_8  and  C7_9 
ROOT
HETATM    1  C70 BES A 501      30.988   0.408  25.887  1.00  6.08     0.232 C 
ENDROOT
BRANCH   1   2
HETATM    2  C1  BES A 501      29.645  -0.016  25.948  1.00  6.71     0.068 C 
BRANCH   2   3
HETATM    3  C2  BES A 501      28.603   0.924  25.427  1.00  9.09     0.205 C 
BRANCH   3   4
HETATM    4  C3  BES A 501      27.738   1.376  26.568  1.00  8.29     0.227 C 
HETATM    5  O3  BES A 501      28.245   2.094  27.401  1.00  7.85    -0.277 OA
HETATM    6  N1  BES A 501      26.336   0.939  26.621  1.00  8.97    -0.246 NA
HETATM    7  H7  BES A 501      26.368  -0.131  26.617  1.00  8.27     0.131 HD
BRANCH   6   8
HETATM    8  C4  BES A 501      25.394   1.300  27.682  1.00 10.85     0.169 C 
BRANCH   8   9
HETATM    9  C13 BES A 501      23.969   0.952  27.242  1.00  8.22     0.089 C 
BRANCH   9  10
HETATM   10  C7  BES A 501      22.940   1.768  28.049  1.00 11.21     0.029 A 
HETATM   11  C21 BES A 501      21.645   2.391  27.496  1.00  0.00     0.143 A 
HETATM   12  N22 BES A 501      20.932   3.111  28.655  1.00  0.00    -0.254 N 
HETATM   13  C23 BES A 501      21.786   2.934  29.924  1.00  0.00     0.207 A 
HETATM   14  N24 BES A 501      23.028   2.103  29.549  1.00  0.00    -0.353 N 
HETATM   15  H13 BES A 501      23.813   1.810  30.215  1.00  8.23     0.166 HD
ENDBRANCH   9  10
ENDBRANCH   8   9
BRANCH   8  16
HETATM   16  C5  BES A 501      25.735   0.478  28.882  1.00 10.09     0.192 C 
HETATM   17  O1  BES A 501      25.773  -0.779  28.780  1.00  5.58    -0.647 OA
HETATM   18  O4  BES A 501      26.017   1.100  29.952  1.00  5.29    -0.647 OA
ENDBRANCH   8  16
ENDBRANCH   6   8
ENDBRANCH   3   4
BRANCH   3  19
HETATM   19  O5  BES A 501      29.266   2.113  24.798  1.00  8.27    -0.387 OA
HETATM   20  H15 BES A 501      29.144   2.951  25.419  1.00  8.22     0.210 HD
ENDBRANCH   3  19
ENDBRANCH   2   3
ENDBRANCH   1   2
BRANCH   1  21
HETATM   21  N12 BES A 501      31.288   1.314  27.072  1.00  8.22    -0.079 N 
HETATM   22  H14 BES A 501      30.506   2.035  27.177  1.00  8.22     0.274 HD
HETATM   23  H15 BES A 501      32.218   1.817  26.909  1.00  8.22     0.274 HD
HETATM   24  H1  BES A 501      31.353   0.725  27.963  1.00  8.22     0.274 HD
ENDBRANCH   1  21
TORSDOF 9
ENDMDL
MODEL 9
REMARK VINA RESULT:    -6.012      1.728      2.060
REMARK INTER + INTRA:          -9.564
REMARK INTER:                  -9.078
REMARK INTRA:                  -0.486
REMARK UNBOUND:                -0.740
REMARK  9 active torsions:
REMARK  status: ('A' for Active; 'I' for Inactive)
REMARK    1  A    between atoms: C70_1  and  C1_2 
REMARK    2  A    between atoms: C70_1  and  N12_20 
REMARK    3  A    between atoms: C1_2  and  C2_3 
REMARK    4  A    between atoms: C2_3  and  C3_4 
REMARK    5  A    between atoms: C2_3  and  O5_17 
REMARK       I    between atoms: C3_4  and  N1_6 
REMARK    6  A    between atoms: N1_6  and  C4_7 
REMARK    7  A    between atoms: C4_7  and  C13_8 
REMARK    8  A    between atoms: C4_7  and  C5_10 
REMARK    9  A    between atoms: C13_8  and  C7_9 
ROOT
HETATM    1  C70 BES A 501      22.740   2.555  27.143  1.00  6.08     0.232 C 
ENDROOT
BRANCH   1   2
HETATM    2  C1  BES A 501      23.981   1.964  27.452  1.00  6.71     0.068 C 
BRANCH   2   3
HETATM    3  C2  BES A 501      24.495   2.135  28.848  1.00  9.09     0.205 C 
BRANCH   3   4
HETATM    4  C3  BES A 501      25.896   1.599  28.921  1.00  8.29     0.227 C 
HETATM    5  O3  BES A 501      26.244   1.093  29.965  1.00  7.85    -0.277 OA
HETATM    6  N1  BES A 501      26.766   1.704  27.742  1.00  8.97    -0.246 NA
HETATM    7  H7  BES A 501      26.810   2.748  27.509  1.00  8.27     0.131 HD
BRANCH   6   8
HETATM    8  C4  BES A 501      28.150   1.231  27.687  1.00 10.85     0.169 C 
BRANCH   8   9
HETATM    9  C13 BES A 501      28.170  -0.300  27.696  1.00  8.22     0.089 C 
BRANCH   9  10
HETATM   10  C7  BES A 501      29.611  -0.821  27.860  1.00 11.21     0.029 A 
HETATM   11  C21 BES A 501      30.619  -1.066  26.721  1.00  0.00     0.143 A 
HETATM   12  N22 BES A 501      31.927  -1.583  27.348  1.00  0.00    -0.254 N 
HETATM   13  C23 BES A 501      31.727  -1.658  28.874  1.00  0.00     0.207 A 
HETATM   14  N24 BES A 501      30.295  -1.187  29.190  1.00  0.00    -0.353 N 
HETATM   15  H13 BES A 501      29.854  -1.124  30.162  1.00  8.23     0.166 HD
ENDBRANCH   9  10
ENDBRANCH   8   9
BRANCH   8  16
HETATM   16  C5  BES A 501      28.735   1.706  26.397  1.00 10.09     0.192 C 
HETATM   17  O1  BES A 501      28.181   1.381  25.310  1.00  5.58    -0.647 OA
HETATM   18  O4  BES A 501      29.751   2.464  26.463  1.00  5.29    -0.647 OA
ENDBRANCH   8  16
ENDBRANCH   6   8
ENDBRANCH   3   4
BRANCH   3  19
HETATM   19  O5  BES A 501      24.496   3.591  29.209  1.00  8.27    -0.387 OA
HETATM   20  H15 BES A 501      25.433   3.853  29.603  1.00  8.22     0.210 HD
ENDBRANCH   3  19
ENDBRANCH   2   3
ENDBRANCH   1   2
BRANCH   1  21
HETATM   21  N12 BES A 501      21.819   2.464  28.350  1.00  8.22    -0.079 N 
HETATM   22  H14 BES A 501      20.974   1.854  28.109  1.00  8.22     0.274 HD
HETATM   23  H15 BES A 501      21.486   3.444  28.619  1.00  8.22     0.274 HD
HETATM   24  H1  BES A 501      22.349   2.030  29.171  1.00  8.22     0.274 HD
ENDBRANCH   1  21
TORSDOF 9
ENDMDL
