MODEL 1
REMARK VINA RESULT:    -6.298      0.000      0.000
REMARK INTER + INTRA:          -9.222
REMARK INTER:                  -8.692
REMARK INTRA:                  -0.531
REMARK UNBOUND:                -0.531
REMARK  7 active torsions:
REMARK  status: ('A' for Active; 'I' for Inactive)
REMARK    1  A    between atoms: N2_1  and  C1_2 
REMARK    2  A    between atoms: C1_2  and  C2_3 
REMARK    3  A    between atoms: C2_3  and  C3_4 
REMARK       I    between atoms: C3_4  and  N1_6 
REMARK    4  A    between atoms: N1_6  and  C4_7 
REMARK    5  A    between atoms: C4_7  and  C13_8 
REMARK    6  A    between atoms: C4_7  and  C5_10 
REMARK    7  A    between atoms: C13_8  and  C7_9 
ROOT
HETATM    1  N2  BES   501      23.005   3.194  26.961  1.00  0.00    -0.079 N 
HETATM    2  H12 BES   501      22.270   3.967  27.049  1.00  0.00     0.274 HD
HETATM    3  H13 BES   501      22.786   2.592  26.104  1.00  0.00     0.274 HD
HETATM    4  H2  BES   501      23.974   3.634  26.849  1.00  0.00     0.274 HD
ENDROOT
BRANCH   1   5
HETATM    5  C1  BES   501      22.984   2.373  28.140  1.00  0.00     0.238 C 
BRANCH   5   6
HETATM    6  C2  BES   501      23.812   1.123  27.937  1.00  0.00     0.123 C 
BRANCH   6   7
HETATM    7  C3  BES   501      25.277   1.485  27.781  1.00  0.00     0.199 C 
HETATM    8  O3  BES   501      25.781   2.390  28.436  1.00  0.00    -0.280 OA
HETATM    9  N1  BES   501      26.075   0.751  26.792  1.00  0.00    -0.248 NA
HETATM   10  H7  BES   501      25.601   0.897  25.844  1.00  0.00     0.131 HD
BRANCH   9  11
HETATM   11  C4  BES   501      27.505   1.070  26.605  1.00  0.00     0.169 C 
BRANCH  11  12
HETATM   12  C13 BES   501      28.377   0.189  27.502  1.00  0.00     0.091 C 
BRANCH  12  13
HETATM   13  C7  BES   501      29.495   1.031  28.145  1.00  0.00     0.053 A 
HETATM   14  C14 BES   501      30.269   0.680  29.429  1.00  0.00     0.116 A 
HETATM   15  N15 BES   501      31.287   1.804  29.695  1.00  0.00    -0.359 N 
HETATM   16  C16 BES   501      31.143   2.851  28.574  1.00  0.00     0.207 A 
HETATM   17  H13 BES   501      31.975   1.850  30.513  1.00  0.00     0.166 HD
HETATM   18  N17 BES   501      30.035   2.373  27.617  1.00  0.00    -0.247 N 
ENDBRANCH  12  13
ENDBRANCH  11  12
BRANCH  11  19
HETATM   19  C5  BES   501      27.899   1.010  25.138  1.00  0.00     0.192 C 
HETATM   20  O1  BES   501      27.018   1.092  24.242  1.00  0.00    -0.647 OA
HETATM   21  O4  BES   501      29.109   0.894  24.806  1.00  0.00    -0.647 OA
ENDBRANCH  11  19
ENDBRANCH   9  11
ENDBRANCH   6   7
ENDBRANCH   5   6
ENDBRANCH   1   5
TORSDOF 7
ENDMDL
MODEL 2
REMARK VINA RESULT:    -6.017      1.421      1.585
REMARK INTER + INTRA:          -8.834
REMARK INTER:                  -8.200
REMARK INTRA:                  -0.635
REMARK UNBOUND:                -0.531
REMARK  7 active torsions:
REMARK  status: ('A' for Active; 'I' for Inactive)
REMARK    1  A    between atoms: N2_1  and  C1_2 
REMARK    2  A    between atoms: C1_2  and  C2_3 
REMARK    3  A    between atoms: C2_3  and  C3_4 
REMARK       I    between atoms: C3_4  and  N1_6 
REMARK    4  A    between atoms: N1_6  and  C4_7 
REMARK    5  A    between atoms: C4_7  and  C13_8 
REMARK    6  A    between atoms: C4_7  and  C5_10 
REMARK    7  A    between atoms: C13_8  and  C7_9 
ROOT
HETATM    1  N2  BES   501      23.161   1.950  29.628  1.00  0.00    -0.079 N 
HETATM    2  H12 BES   501      22.563   1.548  30.419  1.00  0.00     0.274 HD
HETATM    3  H13 BES   501      22.704   2.843  29.256  1.00  0.00     0.274 HD
HETATM    4  H2  BES   501      24.138   2.177  29.999  1.00  0.00     0.274 HD
ENDROOT
BRANCH   1   5
HETATM    5  C1  BES   501      23.262   0.987  28.566  1.00  0.00     0.238 C 
BRANCH   5   6
HETATM    6  C2  BES   501      23.945   1.592  27.359  1.00  0.00     0.123 C 
BRANCH   6   7
HETATM    7  C3  BES   501      25.450   1.600  27.557  1.00  0.00     0.199 C 
HETATM    8  O3  BES   501      25.960   2.160  28.521  1.00  0.00    -0.280 OA
HETATM    9  N1  BES   501      26.290   0.954  26.543  1.00  0.00    -0.248 NA
HETATM   10  H7  BES   501      26.082   1.442  25.613  1.00  0.00     0.131 HD
BRANCH   9  11
HETATM   11  C4  BES   501      27.759   0.938  26.694  1.00  0.00     0.169 C 
BRANCH  11  12
HETATM   12  C13 BES   501      28.219  -0.356  27.370  1.00  0.00     0.091 C 
BRANCH  12  13
HETATM   13  C7  BES   501      29.541  -0.118  28.123  1.00  0.00     0.053 A 
HETATM   14  C14 BES   501      29.771   0.912  29.245  1.00  0.00     0.116 A 
HETATM   15  N15 BES   501      31.237   0.800  29.702  1.00  0.00    -0.359 N 
HETATM   16  C16 BES   501      31.914  -0.300  28.863  1.00  0.00     0.207 A 
HETATM   17  H13 BES   501      31.704   1.383  30.469  1.00  0.00     0.166 HD
HETATM   18  N17 BES   501      30.866  -0.867  27.888  1.00  0.00    -0.247 N 
ENDBRANCH  12  13
ENDBRANCH  11  12
BRANCH  11  19
HETATM   19  C5  BES   501      28.456   1.205  25.370  1.00  0.00     0.192 C 
HETATM   20  O1  BES   501      28.090   0.599  24.328  1.00  0.00    -0.647 OA
HETATM   21  O4  BES   501      29.393   2.044  25.299  1.00  0.00    -0.647 OA
ENDBRANCH  11  19
ENDBRANCH   9  11
ENDBRANCH   6   7
ENDBRANCH   5   6
ENDBRANCH   1   5
TORSDOF 7
ENDMDL
MODEL 3
REMARK VINA RESULT:    -5.920      2.016      5.418
REMARK INTER + INTRA:          -8.700
REMARK INTER:                  -7.842
REMARK INTRA:                  -0.858
REMARK UNBOUND:                -0.531
REMARK  7 active torsions:
REMARK  status: ('A' for Active; 'I' for Inactive)
REMARK    1  A    between atoms: N2_1  and  C1_2 
REMARK    2  A    between atoms: C1_2  and  C2_3 
REMARK    3  A    between atoms: C2_3  and  C3_4 
REMARK       I    between atoms: C3_4  and  N1_6 
REMARK    4  A    between atoms: N1_6  and  C4_7 
REMARK    5  A    between atoms: C4_7  and  C13_8 
REMARK    6  A    between atoms: C4_7  and  C5_10 
REMARK    7  A    between atoms: C13_8  and  C7_9 
ROOT
HETATM    1  N2  BES   501      30.911   0.373  29.911  1.00  0.00    -0.079 N 
HETATM    2  H12 BES   501      30.261  -0.328  30.391  1.00  0.00     0.274 HD
HETATM    3  H13 BES   501      30.343   0.978  29.236  1.00  0.00     0.274 HD
HETATM    4  H2  BES   501      31.370   0.997  30.649  1.00  0.00     0.274 HD
ENDROOT
BRANCH   1   5
HETATM    5  C1  BES   501      31.927  -0.334  29.181  1.00  0.00     0.238 C 
BRANCH   5   6
HETATM    6  C2  BES   501      31.305  -1.308  28.205  1.00  0.00     0.123 C 
BRANCH   6   7
HETATM    7  C3  BES   501      29.894  -0.871  27.857  1.00  0.00     0.199 C 
HETATM    8  O3  BES   501      28.917  -1.461  28.304  1.00  0.00    -0.280 OA
HETATM    9  N1  BES   501      29.722   0.255  26.932  1.00  0.00    -0.248 NA
HETATM   10  H7  BES   501      30.213  -0.015  26.021  1.00  0.00     0.131 HD
BRANCH   9  11
HETATM   11  C4  BES   501      28.367   0.715  26.564  1.00  0.00     0.169 C 
BRANCH  11  12
HETATM   12  C13 BES   501      27.833   1.709  27.598  1.00  0.00     0.091 C 
BRANCH  12  13
HETATM   13  C7  BES   501      26.362   1.392  27.925  1.00  0.00     0.053 A 
HETATM   14  C14 BES   501      25.786   1.114  29.327  1.00  0.00     0.116 A 
HETATM   15  N15 BES   501      24.277   0.848  29.177  1.00  0.00    -0.359 N 
HETATM   16  C16 BES   501      23.920   0.962  27.683  1.00  0.00     0.207 A 
HETATM   17  H13 BES   501      23.596   0.624  29.971  1.00  0.00     0.166 HD
HETATM   18  N17 BES   501      25.208   1.298  26.910  1.00  0.00    -0.247 N 
ENDBRANCH  12  13
ENDBRANCH  11  12
BRANCH  11  19
HETATM   19  C5  BES   501      28.332   1.250  25.141  1.00  0.00     0.192 C 
HETATM   20  O1  BES   501      29.229   2.037  24.738  1.00  0.00    -0.647 OA
HETATM   21  O4  BES   501      27.415   0.900  24.351  1.00  0.00    -0.647 OA
ENDBRANCH  11  19
ENDBRANCH   9  11
ENDBRANCH   6   7
ENDBRANCH   5   6
ENDBRANCH   1   5
TORSDOF 7
ENDMDL
MODEL 4
REMARK VINA RESULT:    -5.891      2.114      6.379
REMARK INTER + INTRA:          -8.660
REMARK INTER:                  -7.826
REMARK INTRA:                  -0.834
REMARK UNBOUND:                -0.531
REMARK  7 active torsions:
REMARK  status: ('A' for Active; 'I' for Inactive)
REMARK    1  A    between atoms: N2_1  and  C1_2 
REMARK    2  A    between atoms: C1_2  and  C2_3 
REMARK    3  A    between atoms: C2_3  and  C3_4 
REMARK       I    between atoms: C3_4  and  N1_6 
REMARK    4  A    between atoms: N1_6  and  C4_7 
REMARK    5  A    between atoms: C4_7  and  C13_8 
REMARK    6  A    between atoms: C4_7  and  C5_10 
REMARK    7  A    between atoms: C13_8  and  C7_9 
ROOT
HETATM    1  N2  BES   501      29.465  -0.216  28.795  1.00  0.00    -0.079 N 
HETATM    2  H12 BES   501      29.216  -1.023  29.452  1.00  0.00     0.274 HD
HETATM    3  H13 BES   501      28.609   0.415  28.667  1.00  0.00     0.274 HD
HETATM    4  H2  BES   501      30.266   0.353  29.216  1.00  0.00     0.274 HD
ENDROOT
BRANCH   1   5
HETATM    5  C1  BES   501      29.867  -0.741  27.519  1.00  0.00     0.238 C 
BRANCH   5   6
HETATM    6  C2  BES   501      29.079  -0.094  26.401  1.00  0.00     0.123 C 
BRANCH   6   7
HETATM    7  C3  BES   501      27.976   0.778  26.974  1.00  0.00     0.199 C 
HETATM    8  O3  BES   501      28.055   2.000  26.949  1.00  0.00    -0.280 OA
HETATM    9  N1  BES   501      26.824   0.120  27.601  1.00  0.00    -0.248 NA
HETATM   10  H7  BES   501      27.208  -0.484  28.396  1.00  0.00     0.131 HD
BRANCH   9  11
HETATM   11  C4  BES   501      25.727   0.928  28.173  1.00  0.00     0.169 C 
BRANCH  11  12
HETATM   12  C13 BES   501      24.387   0.203  28.026  1.00  0.00     0.091 C 
BRANCH  12  13
HETATM   13  C7  BES   501      23.293   1.197  27.596  1.00  0.00     0.053 A 
HETATM   14  C14 BES   501      23.487   2.705  27.346  1.00  0.00     0.116 A 
HETATM   15  N15 BES   501      22.127   3.299  26.936  1.00  0.00    -0.359 N 
HETATM   16  C16 BES   501      21.092   2.158  26.932  1.00  0.00     0.207 A 
HETATM   17  H13 BES   501      21.934   4.324  26.695  1.00  0.00     0.166 HD
HETATM   18  N17 BES   501      21.813   0.860  27.340  1.00  0.00    -0.247 N 
ENDBRANCH  12  13
ENDBRANCH  11  12
BRANCH  11  19
HETATM   19  C5  BES   501      26.033   1.343  29.603  1.00  0.00     0.192 C 
HETATM   20  O1  BES   501      27.208   1.265  30.048  1.00  0.00    -0.647 OA
HETATM   21  O4  BES   501      25.117   1.782  30.350  1.00  0.00    -0.647 OA
ENDBRANCH  11  19
ENDBRANCH   9  11
ENDBRANCH   6   7
ENDBRANCH   5   6
ENDBRANCH   1   5
TORSDOF 7
ENDMDL
MODEL 5
REMARK VINA RESULT:    -5.783      2.527      3.137
REMARK INTER + INTRA:          -8.511
REMARK INTER:                  -8.201
REMARK INTRA:                  -0.310
REMARK UNBOUND:                -0.531
REMARK  7 active torsions:
REMARK  status: ('A' for Active; 'I' for Inactive)
REMARK    1  A    between atoms: N2_1  and  C1_2 
REMARK    2  A    between atoms: C1_2  and  C2_3 
REMARK    3  A    between atoms: C2_3  and  C3_4 
REMARK       I    between atoms: C3_4  and  N1_6 
REMARK    4  A    between atoms: N1_6  and  C4_7 
REMARK    5  A    between atoms: C4_7  and  C13_8 
REMARK    6  A    between atoms: C4_7  and  C5_10 
REMARK    7  A    between atoms: C13_8  and  C7_9 
ROOT
HETATM    1  N2  BES   501      20.786   1.707  26.338  1.00  0.00    -0.079 N 
HETATM    2  H12 BES   501      19.817   2.092  26.097  1.00  0.00     0.274 HD
HETATM    3  H13 BES   501      20.695   0.690  26.659  1.00  0.00     0.274 HD
HETATM    4  H2  BES   501      21.414   1.753  25.473  1.00  0.00     0.274 HD
ENDROOT
BRANCH   1   5
HETATM    5  C1  BES   501      21.366   2.492  27.394  1.00  0.00     0.238 C 
BRANCH   5   6
HETATM    6  C2  BES   501      22.761   2.942  27.020  1.00  0.00     0.123 C 
BRANCH   6   7
HETATM    7  C3  BES   501      23.747   1.802  27.204  1.00  0.00     0.199 C 
HETATM    8  O3  BES   501      23.370   0.637  27.232  1.00  0.00    -0.280 OA
HETATM    9  N1  BES   501      25.164   2.131  27.391  1.00  0.00    -0.248 NA
HETATM   10  H7  BES   501      25.225   2.756  28.257  1.00  0.00     0.131 HD
BRANCH   9  11
HETATM   11  C4  BES   501      26.159   1.054  27.574  1.00  0.00     0.169 C 
BRANCH  11  12
HETATM   12  C13 BES   501      27.576   1.580  27.338  1.00  0.00     0.091 C 
BRANCH  12  13
HETATM   13  C7  BES   501      28.606   0.625  27.968  1.00  0.00     0.053 A 
HETATM   14  C14 BES   501      29.469   0.916  29.211  1.00  0.00     0.116 A 
HETATM   15  N15 BES   501      30.351  -0.317  29.478  1.00  0.00    -0.359 N 
HETATM   16  C16 BES   501      30.034  -1.372  28.401  1.00  0.00     0.207 A 
HETATM   17  H13 BES   501      31.060  -0.424  30.273  1.00  0.00     0.166 HD
HETATM   18  N17 BES   501      28.956  -0.789  27.468  1.00  0.00    -0.247 N 
ENDBRANCH  12  13
ENDBRANCH  11  12
BRANCH  11  19
HETATM   19  C5  BES   501      25.989   0.365  28.918  1.00  0.00     0.192 C 
HETATM   20  O1  BES   501      25.827  -0.883  28.975  1.00  0.00    -0.647 OA
HETATM   21  O4  BES   501      26.022   1.033  29.986  1.00  0.00    -0.647 OA
ENDBRANCH  11  19
ENDBRANCH   9  11
ENDBRANCH   6   7
ENDBRANCH   5   6
ENDBRANCH   1   5
TORSDOF 7
ENDMDL
MODEL 6
REMARK VINA RESULT:    -5.739      2.691      5.676
REMARK INTER + INTRA:          -8.450
REMARK INTER:                  -7.563
REMARK INTRA:                  -0.888
REMARK UNBOUND:                -0.531
REMARK  7 active torsions:
REMARK  status: ('A' for Active; 'I' for Inactive)
REMARK    1  A    between atoms: N2_1  and  C1_2 
REMARK    2  A    between atoms: C1_2  and  C2_3 
REMARK    3  A    between atoms: C2_3  and  C3_4 
REMARK       I    between atoms: C3_4  and  N1_6 
REMARK    4  A    between atoms: N1_6  and  C4_7 
REMARK    5  A    between atoms: C4_7  and  C13_8 
REMARK    6  A    between atoms: C4_7  and  C5_10 
REMARK    7  A    between atoms: C13_8  and  C7_9 
ROOT
HETATM    1  N2  BES   501      29.327  -1.063  25.114  1.00  0.00    -0.079 N 
HETATM    2  H12 BES   501      28.688  -0.318  24.690  1.00  0.00     0.274 HD
HETATM    3  H13 BES   501      29.505  -0.834  26.144  1.00  0.00     0.274 HD
HETATM    4  H2  BES   501      28.856  -2.021  25.040  1.00  0.00     0.274 HD
ENDROOT
BRANCH   1   5
HETATM    5  C1  BES   501      30.577  -1.087  24.405  1.00  0.00     0.238 C 
BRANCH   5   6
HETATM    6  C2  BES   501      31.183   0.298  24.344  1.00  0.00     0.123 C 
BRANCH   6   7
HETATM    7  C3  BES   501      30.403   1.251  25.231  1.00  0.00     0.199 C 
HETATM    8  O3  BES   501      29.614   2.059  24.755  1.00  0.00    -0.280 OA
HETATM    9  N1  BES   501      30.646   1.213  26.677  1.00  0.00    -0.248 NA
HETATM   10  H7  BES   501      31.687   1.413  26.821  1.00  0.00     0.131 HD
BRANCH   9  11
HETATM   11  C4  BES   501      29.910   2.122  27.579  1.00  0.00     0.169 C 
BRANCH  11  12
HETATM   12  C13 BES   501      29.171   1.331  28.661  1.00  0.00     0.091 C 
BRANCH  12  13
HETATM   13  C7  BES   501      27.677   1.218  28.306  1.00  0.00     0.053 A 
HETATM   14  C14 BES   501      27.095   1.022  26.893  1.00  0.00     0.116 A 
HETATM   15  N15 BES   501      25.561   0.965  27.013  1.00  0.00    -0.359 N 
HETATM   16  C16 BES   501      25.195   1.124  28.502  1.00  0.00     0.207 A 
HETATM   17  H13 BES   501      24.870   0.836  26.206  1.00  0.00     0.166 HD
HETATM   18  N17 BES   501      26.502   1.280  29.299  1.00  0.00    -0.247 N 
ENDBRANCH  12  13
ENDBRANCH  11  12
BRANCH  11  19
HETATM   19  C5  BES   501      30.821   3.202  28.141  1.00  0.00     0.192 C 
HETATM   20  O1  BES   501      31.676   2.916  29.020  1.00  0.00    -0.647 OA
HETATM   21  O4  BES   501      30.739   4.388  27.721  1.00  0.00    -0.647 OA
ENDBRANCH  11  19
ENDBRANCH   9  11
ENDBRANCH   6   7
ENDBRANCH   5   6
ENDBRANCH   1   5
TORSDOF 7
ENDMDL
MODEL 7
REMARK VINA RESULT:    -5.688      2.567      5.813
REMARK INTER + INTRA:          -8.380
REMARK INTER:                  -7.452
REMARK INTRA:                  -0.928
REMARK UNBOUND:                -0.531
REMARK  7 active torsions:
REMARK  status: ('A' for Active; 'I' for Inactive)
REMARK    1  A    between atoms: N2_1  and  C1_2 
REMARK    2  A    between atoms: C1_2  and  C2_3 
REMARK    3  A    between atoms: C2_3  and  C3_4 
REMARK       I    between atoms: C3_4  and  N1_6 
REMARK    4  A    between atoms: N1_6  and  C4_7 
REMARK    5  A    between atoms: C4_7  and  C13_8 
REMARK    6  A    between atoms: C4_7  and  C5_10 
REMARK    7  A    between atoms: C13_8  and  C7_9 
ROOT
HETATM    1  N2  BES   501      31.886   0.565  24.888  1.00  0.00    -0.079 N 
HETATM    2  H12 BES   501      31.158   0.673  25.664  1.00  0.00     0.274 HD
HETATM    3  H13 BES   501      31.653   1.233  24.085  1.00  0.00     0.274 HD
HETATM    4  H2  BES   501      32.856   0.800  25.275  1.00  0.00     0.274 HD
ENDROOT
BRANCH   1   5
HETATM    5  C1  BES   501      31.877  -0.788  24.404  1.00  0.00     0.238 C 
BRANCH   5   6
HETATM    6  C2  BES   501      30.459  -1.304  24.289  1.00  0.00     0.123 C 
BRANCH   6   7
HETATM    7  C3  BES   501      29.485  -0.293  24.864  1.00  0.00     0.199 C 
HETATM    8  O3  BES   501      28.993   0.584  24.164  1.00  0.00    -0.280 OA
HETATM    9  N1  BES   501      29.173  -0.363  26.296  1.00  0.00    -0.248 NA
HETATM   10  H7  BES   501      30.100  -0.255  26.819  1.00  0.00     0.131 HD
BRANCH   9  11
HETATM   11  C4  BES   501      28.231   0.601  26.900  1.00  0.00     0.169 C 
BRANCH  11  12
HETATM   12  C13 BES   501      27.308  -0.098  27.900  1.00  0.00     0.091 C 
BRANCH  12  13
HETATM   13  C7  BES   501      26.112   0.810  28.241  1.00  0.00     0.053 A 
HETATM   14  C14 BES   501      25.060   1.333  27.244  1.00  0.00     0.116 A 
HETATM   15  N15 BES   501      24.056   2.202  28.023  1.00  0.00    -0.359 N 
HETATM   16  C16 BES   501      24.486   2.215  29.503  1.00  0.00     0.207 A 
HETATM   17  H13 BES   501      23.207   2.707  27.611  1.00  0.00     0.166 HD
HETATM   18  N17 BES   501      25.756   1.356  29.636  1.00  0.00    -0.247 N 
ENDBRANCH  12  13
ENDBRANCH  11  12
BRANCH  11  19
HETATM   19  C5  BES   501      28.963   1.796  27.491  1.00  0.00     0.192 C 
HETATM   20  O1  BES   501      29.593   1.680  28.575  1.00  0.00    -0.647 OA
HETATM   21  O4  BES   501      28.958   2.906  26.894  1.00  0.00    -0.647 OA
ENDBRANCH  11  19
ENDBRANCH   9  11
ENDBRANCH   6   7
ENDBRANCH   5   6
ENDBRANCH   1   5
TORSDOF 7
ENDMDL
MODEL 8
REMARK VINA RESULT:    -5.629      3.291      5.257
REMARK INTER + INTRA:          -8.299
REMARK INTER:                  -7.952
REMARK INTRA:                  -0.347
REMARK UNBOUND:                -0.531
REMARK  7 active torsions:
REMARK  status: ('A' for Active; 'I' for Inactive)
REMARK    1  A    between atoms: N2_1  and  C1_2 
REMARK    2  A    between atoms: C1_2  and  C2_3 
REMARK    3  A    between atoms: C2_3  and  C3_4 
REMARK       I    between atoms: C3_4  and  N1_6 
REMARK    4  A    between atoms: N1_6  and  C4_7 
REMARK    5  A    between atoms: C4_7  and  C13_8 
REMARK    6  A    between atoms: C4_7  and  C5_10 
REMARK    7  A    between atoms: C13_8  and  C7_9 
ROOT
HETATM    1  N2  BES   501      18.801   2.310  32.264  1.00  0.00    -0.079 N 
HETATM    2  H12 BES   501      19.266   1.472  32.740  1.00  0.00     0.274 HD
HETATM    3  H13 BES   501      17.803   2.049  31.983  1.00  0.00     0.274 HD
HETATM    4  H2  BES   501      18.776   3.137  32.943  1.00  0.00     0.274 HD
ENDROOT
BRANCH   1   5
HETATM    5  C1  BES   501      19.550   2.673  31.092  1.00  0.00     0.238 C 
BRANCH   5   6
HETATM    6  C2  BES   501      20.748   3.520  31.463  1.00  0.00     0.123 C 
BRANCH   6   7
HETATM    7  C3  BES   501      21.930   3.171  30.578  1.00  0.00     0.199 C 
HETATM    8  O3  BES   501      23.070   3.140  31.025  1.00  0.00    -0.280 OA
HETATM    9  N1  BES   501      21.682   2.911  29.156  1.00  0.00    -0.248 NA
HETATM   10  H7  BES   501      21.224   3.791  28.756  1.00  0.00     0.131 HD
BRANCH   9  11
HETATM   11  C4  BES   501      22.802   2.568  28.256  1.00  0.00     0.169 C 
BRANCH  11  12
HETATM   12  C13 BES   501      23.266   1.129  28.492  1.00  0.00     0.091 C 
BRANCH  12  13
HETATM   13  C7  BES   501      24.798   1.040  28.371  1.00  0.00     0.053 A 
HETATM   14  C14 BES   501      25.792   0.909  29.541  1.00  0.00     0.116 A 
HETATM   15  N15 BES   501      27.214   0.855  28.954  1.00  0.00    -0.359 N 
HETATM   16  C16 BES   501      27.099   0.951  27.420  1.00  0.00     0.207 A 
HETATM   17  H13 BES   501      28.123   0.765  29.512  1.00  0.00     0.166 HD
HETATM   18  N17 BES   501      25.607   1.066  27.062  1.00  0.00    -0.247 N 
ENDBRANCH  12  13
ENDBRANCH  11  12
BRANCH  11  19
HETATM   19  C5  BES   501      22.456   2.858  26.804  1.00  0.00     0.192 C 
HETATM   20  O1  BES   501      23.149   3.670  26.137  1.00  0.00    -0.647 OA
HETATM   21  O4  BES   501      21.482   2.277  26.252  1.00  0.00    -0.647 OA
ENDBRANCH  11  19
ENDBRANCH   9  11
ENDBRANCH   6   7
ENDBRANCH   5   6
ENDBRANCH   1   5
TORSDOF 7
ENDMDL
MODEL 9
REMARK VINA RESULT:    -5.625      2.672      3.431
REMARK INTER + INTRA:          -8.293
REMARK INTER:                  -7.812
REMARK INTRA:                  -0.481
REMARK UNBOUND:                -0.531
REMARK  7 active torsions:
REMARK  status: ('A' for Active; 'I' for Inactive)
REMARK    1  A    between atoms: N2_1  and  C1_2 
REMARK    2  A    between atoms: C1_2  and  C2_3 
REMARK    3  A    between atoms: C2_3  and  C3_4 
REMARK       I    between atoms: C3_4  and  N1_6 
REMARK    4  A    between atoms: N1_6  and  C4_7 
REMARK    5  A    between atoms: C4_7  and  C13_8 
REMARK    6  A    between atoms: C4_7  and  C5_10 
REMARK    7  A    between atoms: C13_8  and  C7_9 
ROOT
HETATM    1  N2  BES   501      24.037   2.137  30.481  1.00  0.00    -0.079 N 
HETATM    2  H12 BES   501      23.015   1.827  30.437  1.00  0.00     0.274 HD
HETATM    3  H13 BES   501      24.164   2.830  31.287  1.00  0.00     0.274 HD
HETATM    4  H2  BES   501      24.662   1.285  30.644  1.00  0.00     0.274 HD
ENDROOT
BRANCH   1   5
HETATM    5  C1  BES   501      24.402   2.771  29.243  1.00  0.00     0.238 C 
BRANCH   5   6
HETATM    6  C2  BES   501      25.054   1.778  28.306  1.00  0.00     0.123 C 
BRANCH   6   7
HETATM    7  C3  BES   501      26.442   1.420  28.804  1.00  0.00     0.199 C 
HETATM    8  O3  BES   501      26.677   1.309  30.002  1.00  0.00    -0.280 OA
HETATM    9  N1  BES   501      27.514   1.251  27.817  1.00  0.00    -0.248 NA
HETATM   10  H7  BES   501      27.589   2.174  27.281  1.00  0.00     0.131 HD
BRANCH   9  11
HETATM   11  C4  BES   501      28.881   0.904  28.257  1.00  0.00     0.169 C 
BRANCH  11  12
HETATM   12  C13 BES   501      29.258  -0.504  27.790  1.00  0.00     0.091 C 
BRANCH  12  13
HETATM   13  C7  BES   501      29.902  -0.443  26.393  1.00  0.00     0.053 A 
HETATM   14  C14 BES   501      29.156  -0.237  25.061  1.00  0.00     0.116 A 
HETATM   15  N15 BES   501      30.197  -0.245  23.926  1.00  0.00    -0.359 N 
HETATM   16  C16 BES   501      31.587  -0.454  24.557  1.00  0.00     0.207 A 
HETATM   17  H13 BES   501      29.992  -0.124  22.883  1.00  0.00     0.166 HD
HETATM   18  N17 BES   501      31.404  -0.577  26.081  1.00  0.00    -0.247 N 
ENDBRANCH  12  13
ENDBRANCH  11  12
BRANCH  11  19
HETATM   19  C5  BES   501      29.885   1.966  27.836  1.00  0.00     0.192 C 
HETATM   20  O1  BES   501      29.589   2.796  26.936  1.00  0.00    -0.647 OA
HETATM   21  O4  BES   501      31.013   2.034  28.393  1.00  0.00    -0.647 OA
ENDBRANCH  11  19
ENDBRANCH   9  11
ENDBRANCH   6   7
ENDBRANCH   5   6
ENDBRANCH   1   5
TORSDOF 7
ENDMDL
