MODEL 1
REMARK VINA RESULT:    -8.328      0.000      0.000
REMARK INTER + INTRA:         -12.836
REMARK INTER:                 -12.710
REMARK INTRA:                  -0.126
REMARK UNBOUND:                -0.126
REMARK  10 active torsions:
REMARK  status: ('A' for Active; 'I' for Inactive)
REMARK    1  A    between atoms: N2_1  and  C1_2 
REMARK    2  A    between atoms: C1_2  and  C6_3 
REMARK    3  A    between atoms: C1_2  and  C2_10 
REMARK    4  A    between atoms: C6_3  and  C7_4 
REMARK    5  A    between atoms: C2_10  and  O2_11 
REMARK    6  A    between atoms: C2_10  and  C3_12 
REMARK       I    between atoms: C3_12  and  N1_14 
REMARK    7  A    between atoms: N1_14  and  C4_15 
REMARK    8  A    between atoms: C4_15  and  C13_16 
REMARK    9  A    between atoms: C4_15  and  C5_20 
REMARK   10  A    between atoms: C13_16  and  C14_17 
ROOT
HETATM    1  N2  BES   501      24.715   0.224  26.846  1.00  0.00    -0.423 N 
HETATM    2  H1  BES   501      25.074   0.889  26.088  1.00  0.00     0.150 HD
HETATM    3  H2  BES   501      24.385  -0.760  26.581  1.00  0.00     0.150 HD
ENDROOT
BRANCH   1   4
HETATM    4  C1  BES   501      24.677   0.650  28.217  1.00  0.00     0.116 C 
BRANCH   4   5
HETATM    5  C6  BES   501      24.495   2.149  28.476  1.00  0.00     0.066 C 
BRANCH   5   6
HETATM    6  C7  BES   501      23.092   2.527  28.980  1.00  0.00    -0.056 A 
HETATM    7  C8  BES   501      22.855   2.837  30.338  1.00  0.00     0.007 A 
HETATM    8  C9  BES   501      21.556   3.186  30.770  1.00  0.00     0.001 A 
HETATM    9  C10 BES   501      20.507   3.237  29.857  1.00  0.00     0.000 A 
HETATM   10  C11 BES   501      20.745   2.935  28.504  1.00  0.00     0.001 A 
HETATM   11  C12 BES   501      22.043   2.586  28.070  1.00  0.00     0.007 A 
ENDBRANCH   5   6
ENDBRANCH   4   5
BRANCH   4  12
HETATM   12  C2  BES   501      26.000   0.273  28.810  1.00  0.00     0.232 C 
BRANCH  12  13
HETATM   13  O2  BES   501      26.081   0.812  30.065  1.00  0.00    -0.384 OA
HETATM   14  H12 BES   501      26.641   1.698  30.030  1.00  0.00     0.210 HD
ENDBRANCH  12  13
BRANCH  12  15
HETATM   15  C3  BES   501      27.098   0.821  27.945  1.00  0.00     0.249 C 
HETATM   16  O3  BES   501      27.267   2.020  27.953  1.00  0.00    -0.271 OA
HETATM   17  N1  BES   501      27.906  -0.106  27.142  1.00  0.00    -0.344 N 
HETATM   18  H23 BES   501      27.685  -1.151  27.213  1.00  0.00     0.163 HD
BRANCH  17  19
HETATM   19  C4  BES   501      28.995   0.298  26.253  1.00  0.00     0.185 C 
BRANCH  19  20
HETATM   20  C13 BES   501      29.584  -0.938  25.565  1.00  0.00     0.040 C 
BRANCH  20  21
HETATM   21  C14 BES   501      30.908  -0.601  24.909  1.00  0.00    -0.020 C 
HETATM   22  C15 BES   501      31.856  -0.022  25.960  1.00  0.00     0.009 C 
HETATM   23  C16 BES   501      31.519  -1.810  24.274  1.00  0.00     0.009 C 
ENDBRANCH  20  21
ENDBRANCH  19  20
BRANCH  19  24
HETATM   24  C5  BES   501      28.412   1.191  25.207  1.00  0.00     0.196 C 
HETATM   25  O1  BES   501      27.391   0.814  24.569  1.00  0.00    -0.646 OA
HETATM   26  O4  BES   501      28.956   2.328  25.043  1.00  0.00    -0.646 OA
ENDBRANCH  19  24
ENDBRANCH  17  19
ENDBRANCH  12  15
ENDBRANCH   4  12
ENDBRANCH   1   4
TORSDOF 10
ENDMDL
MODEL 2
REMARK VINA RESULT:    -8.225      0.921      1.225
REMARK INTER + INTRA:         -12.679
REMARK INTER:                 -12.173
REMARK INTRA:                  -0.506
REMARK UNBOUND:                -0.126
REMARK  10 active torsions:
REMARK  status: ('A' for Active; 'I' for Inactive)
REMARK    1  A    between atoms: N2_1  and  C1_2 
REMARK    2  A    between atoms: C1_2  and  C6_3 
REMARK    3  A    between atoms: C1_2  and  C2_10 
REMARK    4  A    between atoms: C6_3  and  C7_4 
REMARK    5  A    between atoms: C2_10  and  O2_11 
REMARK    6  A    between atoms: C2_10  and  C3_12 
REMARK       I    between atoms: C3_12  and  N1_14 
REMARK    7  A    between atoms: N1_14  and  C4_15 
REMARK    8  A    between atoms: C4_15  and  C13_16 
REMARK    9  A    between atoms: C4_15  and  C5_20 
REMARK   10  A    between atoms: C13_16  and  C14_17 
ROOT
HETATM    1  N2  BES   501      24.760   0.506  26.706  1.00  0.00    -0.423 N 
HETATM    2  H1  BES   501      23.898   0.595  26.078  1.00  0.00     0.150 HD
HETATM    3  H2  BES   501      25.700   0.216  26.285  1.00  0.00     0.150 HD
ENDROOT
BRANCH   1   4
HETATM    4  C1  BES   501      24.654   0.774  28.114  1.00  0.00     0.116 C 
BRANCH   4   5
HETATM    5  C6  BES   501      24.484   2.237  28.533  1.00  0.00     0.066 C 
BRANCH   5   6
HETATM    6  C7  BES   501      23.071   2.582  29.031  1.00  0.00    -0.056 A 
HETATM    7  C8  BES   501      22.820   2.887  30.388  1.00  0.00     0.007 A 
HETATM    8  C9  BES   501      21.511   3.204  30.813  1.00  0.00     0.001 A 
HETATM    9  C10 BES   501      20.465   3.229  29.896  1.00  0.00     0.000 A 
HETATM   10  C11 BES   501      20.717   2.933  28.544  1.00  0.00     0.001 A 
HETATM   11  C12 BES   501      22.024   2.615  28.116  1.00  0.00     0.007 A 
ENDBRANCH   5   6
ENDBRANCH   4   5
BRANCH   4  12
HETATM   12  C2  BES   501      25.937   0.301  28.726  1.00  0.00     0.232 C 
BRANCH  12  13
HETATM   13  O2  BES   501      26.005   0.777  30.008  1.00  0.00    -0.384 OA
HETATM   14  H12 BES   501      26.714   0.225  30.550  1.00  0.00     0.210 HD
ENDBRANCH  12  13
BRANCH  12  15
HETATM   15  C3  BES   501      27.088   0.830  27.921  1.00  0.00     0.249 C 
HETATM   16  O3  BES   501      27.339   2.010  28.016  1.00  0.00    -0.271 OA
HETATM   17  N1  BES   501      27.849  -0.093  27.069  1.00  0.00    -0.344 N 
HETATM   18  H23 BES   501      27.555  -1.123  27.063  1.00  0.00     0.163 HD
BRANCH  17  19
HETATM   19  C4  BES   501      28.982   0.294  26.229  1.00  0.00     0.185 C 
BRANCH  19  20
HETATM   20  C13 BES   501      30.011  -0.840  26.197  1.00  0.00     0.040 C 
BRANCH  20  21
HETATM   21  C14 BES   501      31.190  -0.515  27.093  1.00  0.00    -0.020 C 
HETATM   22  C15 BES   501      31.338   1.004  27.196  1.00  0.00     0.009 C 
HETATM   23  C16 BES   501      31.013  -1.109  28.455  1.00  0.00     0.009 C 
ENDBRANCH  20  21
ENDBRANCH  19  20
BRANCH  19  24
HETATM   24  C5  BES   501      28.463   0.504  24.845  1.00  0.00     0.196 C 
HETATM   25  O1  BES   501      27.288   0.932  24.682  1.00  0.00    -0.646 OA
HETATM   26  O4  BES   501      29.265   0.282  23.883  1.00  0.00    -0.646 OA
ENDBRANCH  19  24
ENDBRANCH  17  19
ENDBRANCH  12  15
ENDBRANCH   4  12
ENDBRANCH   1   4
TORSDOF 10
ENDMDL
MODEL 3
REMARK VINA RESULT:    -7.949      1.708      2.430
REMARK INTER + INTRA:         -12.257
REMARK INTER:                 -11.392
REMARK INTRA:                  -0.865
REMARK UNBOUND:                -0.126
REMARK  10 active torsions:
REMARK  status: ('A' for Active; 'I' for Inactive)
REMARK    1  A    between atoms: N2_1  and  C1_2 
REMARK    2  A    between atoms: C1_2  and  C6_3 
REMARK    3  A    between atoms: C1_2  and  C2_10 
REMARK    4  A    between atoms: C6_3  and  C7_4 
REMARK    5  A    between atoms: C2_10  and  O2_11 
REMARK    6  A    between atoms: C2_10  and  C3_12 
REMARK       I    between atoms: C3_12  and  N1_14 
REMARK    7  A    between atoms: N1_14  and  C4_15 
REMARK    8  A    between atoms: C4_15  and  C13_16 
REMARK    9  A    between atoms: C4_15  and  C5_20 
REMARK   10  A    between atoms: C13_16  and  C14_17 
ROOT
HETATM    1  N2  BES   501      23.926   0.237  28.790  1.00  0.00    -0.423 N 
HETATM    2  H1  BES   501      23.847  -0.570  28.092  1.00  0.00     0.150 HD
HETATM    3  H2  BES   501      23.674   0.082  29.818  1.00  0.00     0.150 HD
ENDROOT
BRANCH   1   4
HETATM    4  C1  BES   501      24.370   1.530  28.346  1.00  0.00     0.116 C 
BRANCH   4   5
HETATM    5  C6  BES   501      23.289   2.526  27.913  1.00  0.00     0.066 C 
BRANCH   5   6
HETATM    6  C7  BES   501      22.257   2.840  29.009  1.00  0.00    -0.056 A 
HETATM    7  C8  BES   501      20.882   2.968  28.712  1.00  0.00     0.007 A 
HETATM    8  C9  BES   501      19.958   3.251  29.741  1.00  0.00     0.001 A 
HETATM    9  C10 BES   501      20.396   3.395  31.054  1.00  0.00     0.000 A 
HETATM   10  C11 BES   501      21.765   3.261  31.350  1.00  0.00     0.001 A 
HETATM   11  C12 BES   501      22.691   2.977  30.323  1.00  0.00     0.007 A 
ENDBRANCH   5   6
ENDBRANCH   4   5
BRANCH   4  12
HETATM   12  C2  BES   501      25.231   1.287  27.146  1.00  0.00     0.232 C 
BRANCH  12  13
HETATM   13  O2  BES   501      24.829   0.120  26.553  1.00  0.00    -0.384 OA
HETATM   14  H12 BES   501      24.825   0.240  25.511  1.00  0.00     0.210 HD
ENDBRANCH  12  13
BRANCH  12  15
HETATM   15  C3  BES   501      26.662   1.171  27.585  1.00  0.00     0.249 C 
HETATM   16  O3  BES   501      26.898   1.326  28.762  1.00  0.00    -0.271 OA
HETATM   17  N1  BES   501      27.697   0.879  26.584  1.00  0.00    -0.344 N 
HETATM   18  H23 BES   501      27.384   0.747  25.568  1.00  0.00     0.163 HD
BRANCH  17  19
HETATM   19  C4  BES   501      29.123   0.751  26.877  1.00  0.00     0.185 C 
BRANCH  19  20
HETATM   20  C13 BES   501      29.488  -0.729  27.032  1.00  0.00     0.040 C 
BRANCH  20  21
HETATM   21  C14 BES   501      29.931  -1.021  28.452  1.00  0.00    -0.020 C 
HETATM   22  C15 BES   501      31.149  -1.946  28.417  1.00  0.00     0.009 C 
HETATM   23  C16 BES   501      30.262   0.240  29.184  1.00  0.00     0.009 C 
ENDBRANCH  20  21
ENDBRANCH  19  20
BRANCH  19  24
HETATM   24  C5  BES   501      29.873   1.304  25.710  1.00  0.00     0.196 C 
HETATM   25  O1  BES   501      31.066   0.945  25.513  1.00  0.00    -0.646 OA
HETATM   26  O4  BES   501      29.242   2.087  24.930  1.00  0.00    -0.646 OA
ENDBRANCH  19  24
ENDBRANCH  17  19
ENDBRANCH  12  15
ENDBRANCH   4  12
ENDBRANCH   1   4
TORSDOF 10
ENDMDL
MODEL 4
REMARK VINA RESULT:    -7.568      1.923      2.585
REMARK INTER + INTRA:         -11.676
REMARK INTER:                 -10.942
REMARK INTRA:                  -0.734
REMARK UNBOUND:                -0.126
REMARK  10 active torsions:
REMARK  status: ('A' for Active; 'I' for Inactive)
REMARK    1  A    between atoms: N2_1  and  C1_2 
REMARK    2  A    between atoms: C1_2  and  C6_3 
REMARK    3  A    between atoms: C1_2  and  C2_10 
REMARK    4  A    between atoms: C6_3  and  C7_4 
REMARK    5  A    between atoms: C2_10  and  O2_11 
REMARK    6  A    between atoms: C2_10  and  C3_12 
REMARK       I    between atoms: C3_12  and  N1_14 
REMARK    7  A    between atoms: N1_14  and  C4_15 
REMARK    8  A    between atoms: C4_15  and  C13_16 
REMARK    9  A    between atoms: C4_15  and  C5_20 
REMARK   10  A    between atoms: C13_16  and  C14_17 
ROOT
HETATM    1  N2  BES   501      24.597   0.096  28.777  1.00  0.00    -0.423 N 
HETATM    2  H1  BES   501      23.803   0.092  28.059  1.00  0.00     0.150 HD
HETATM    3  H2  BES   501      24.728  -0.738  29.435  1.00  0.00     0.150 HD
ENDROOT
BRANCH   1   4
HETATM    4  C1  BES   501      25.486   1.222  28.858  1.00  0.00     0.116 C 
BRANCH   4   5
HETATM    5  C6  BES   501      24.854   2.591  29.129  1.00  0.00     0.066 C 
BRANCH   5   6
HETATM    6  C7  BES   501      23.383   2.693  28.694  1.00  0.00    -0.056 A 
HETATM    7  C8  BES   501      23.011   2.644  27.332  1.00  0.00     0.007 A 
HETATM    8  C9  BES   501      21.650   2.735  26.964  1.00  0.00     0.001 A 
HETATM    9  C10 BES   501      20.669   2.862  27.942  1.00  0.00     0.000 A 
HETATM   10  C11 BES   501      21.039   2.904  29.299  1.00  0.00     0.001 A 
HETATM   11  C12 BES   501      22.399   2.813  29.669  1.00  0.00     0.007 A 
ENDBRANCH   5   6
ENDBRANCH   4   5
BRANCH   4  12
HETATM   12  C2  BES   501      26.159   1.320  27.524  1.00  0.00     0.232 C 
BRANCH  12  13
HETATM   13  O2  BES   501      25.491   0.513  26.642  1.00  0.00    -0.384 OA
HETATM   14  H12 BES   501      25.342  -0.431  27.075  1.00  0.00     0.210 HD
ENDBRANCH  12  13
BRANCH  12  15
HETATM   15  C3  BES   501      27.583   0.863  27.658  1.00  0.00     0.249 C 
HETATM   16  O3  BES   501      27.771  -0.263  28.060  1.00  0.00    -0.271 OA
HETATM   17  N1  BES   501      28.668   1.787  27.301  1.00  0.00    -0.344 N 
HETATM   18  H23 BES   501      28.397   2.759  26.944  1.00  0.00     0.163 HD
BRANCH  17  19
HETATM   19  C4  BES   501      30.092   1.471  27.396  1.00  0.00     0.185 C 
BRANCH  19  20
HETATM   20  C13 BES   501      30.686   1.337  25.990  1.00  0.00     0.040 C 
BRANCH  20  21
HETATM   21  C14 BES   501      30.925  -0.120  25.650  1.00  0.00    -0.020 C 
HETATM   22  C15 BES   501      31.261  -0.886  26.930  1.00  0.00     0.009 C 
HETATM   23  C16 BES   501      29.727  -0.724  24.988  1.00  0.00     0.009 C 
ENDBRANCH  20  21
ENDBRANCH  19  20
BRANCH  19  24
HETATM   24  C5  BES   501      30.760   2.614  28.086  1.00  0.00     0.196 C 
HETATM   25  O1  BES   501      31.456   2.396  29.116  1.00  0.00    -0.646 OA
HETATM   26  O4  BES   501      30.632   3.766  27.562  1.00  0.00    -0.646 OA
ENDBRANCH  19  24
ENDBRANCH  17  19
ENDBRANCH  12  15
ENDBRANCH   4  12
ENDBRANCH   1   4
TORSDOF 10
ENDMDL
MODEL 5
REMARK VINA RESULT:    -7.536      2.116      2.897
REMARK INTER + INTRA:         -11.627
REMARK INTER:                 -11.328
REMARK INTRA:                  -0.299
REMARK UNBOUND:                -0.126
REMARK  10 active torsions:
REMARK  status: ('A' for Active; 'I' for Inactive)
REMARK    1  A    between atoms: N2_1  and  C1_2 
REMARK    2  A    between atoms: C1_2  and  C6_3 
REMARK    3  A    between atoms: C1_2  and  C2_10 
REMARK    4  A    between atoms: C6_3  and  C7_4 
REMARK    5  A    between atoms: C2_10  and  O2_11 
REMARK    6  A    between atoms: C2_10  and  C3_12 
REMARK       I    between atoms: C3_12  and  N1_14 
REMARK    7  A    between atoms: N1_14  and  C4_15 
REMARK    8  A    between atoms: C4_15  and  C13_16 
REMARK    9  A    between atoms: C4_15  and  C5_20 
REMARK   10  A    between atoms: C13_16  and  C14_17 
ROOT
HETATM    1  N2  BES   501      25.084   0.242  26.946  1.00  0.00    -0.423 N 
HETATM    2  H1  BES   501      26.064  -0.141  26.748  1.00  0.00     0.150 HD
HETATM    3  H2  BES   501      24.361   0.292  26.159  1.00  0.00     0.150 HD
ENDROOT
BRANCH   1   4
HETATM    4  C1  BES   501      24.741   0.691  28.267  1.00  0.00     0.116 C 
BRANCH   4   5
HETATM    5  C6  BES   501      24.510   2.194  28.454  1.00  0.00     0.066 C 
BRANCH   5   6
HETATM    6  C7  BES   501      23.070   2.556  28.855  1.00  0.00    -0.056 A 
HETATM    7  C8  BES   501      22.021   2.565  27.908  1.00  0.00     0.007 A 
HETATM    8  C9  BES   501      20.708   2.897  28.308  1.00  0.00     0.001 A 
HETATM    9  C10 BES   501      20.439   3.205  29.638  1.00  0.00     0.000 A 
HETATM   10  C11 BES   501      21.482   3.189  30.581  1.00  0.00     0.001 A 
HETATM   11  C12 BES   501      22.796   2.857  30.184  1.00  0.00     0.007 A 
ENDBRANCH   5   6
ENDBRANCH   4   5
BRANCH   4  12
HETATM   12  C2  BES   501      25.897   0.325  29.146  1.00  0.00     0.232 C 
BRANCH  12  13
HETATM   13  O2  BES   501      25.803   1.045  30.306  1.00  0.00    -0.384 OA
HETATM   14  H12 BES   501      25.455   2.011  30.092  1.00  0.00     0.210 HD
ENDBRANCH  12  13
BRANCH  12  15
HETATM   15  C3  BES   501      27.177   0.660  28.437  1.00  0.00     0.249 C 
HETATM   16  O3  BES   501      27.231   1.722  27.857  1.00  0.00    -0.271 OA
HETATM   17  N1  BES   501      28.291  -0.297  28.479  1.00  0.00    -0.344 N 
HETATM   18  H23 BES   501      28.148  -1.204  29.029  1.00  0.00     0.163 HD
BRANCH  17  19
HETATM   19  C4  BES   501      29.582  -0.097  27.823  1.00  0.00     0.185 C 
BRANCH  19  20
HETATM   20  C13 BES   501      30.351   1.024  28.531  1.00  0.00     0.040 C 
BRANCH  20  21
HETATM   21  C14 BES   501      31.017   1.933  27.518  1.00  0.00    -0.020 C 
HETATM   22  C15 BES   501      30.328   1.765  26.162  1.00  0.00     0.009 C 
HETATM   23  C16 BES   501      30.955   3.363  27.954  1.00  0.00     0.009 C 
ENDBRANCH  20  21
ENDBRANCH  19  20
BRANCH  19  24
HETATM   24  C5  BES   501      30.358  -1.366  27.964  1.00  0.00     0.196 C 
HETATM   25  O1  BES   501      31.378  -1.550  27.245  1.00  0.00    -0.646 OA
HETATM   26  O4  BES   501      29.971  -2.190  28.851  1.00  0.00    -0.646 OA
ENDBRANCH  19  24
ENDBRANCH  17  19
ENDBRANCH  12  15
ENDBRANCH   4  12
ENDBRANCH   1   4
TORSDOF 10
ENDMDL
MODEL 6
REMARK VINA RESULT:    -7.495      1.628      2.266
REMARK INTER + INTRA:         -11.564
REMARK INTER:                 -11.010
REMARK INTRA:                  -0.554
REMARK UNBOUND:                -0.126
REMARK  10 active torsions:
REMARK  status: ('A' for Active; 'I' for Inactive)
REMARK    1  A    between atoms: N2_1  and  C1_2 
REMARK    2  A    between atoms: C1_2  and  C6_3 
REMARK    3  A    between atoms: C1_2  and  C2_10 
REMARK    4  A    between atoms: C6_3  and  C7_4 
REMARK    5  A    between atoms: C2_10  and  O2_11 
REMARK    6  A    between atoms: C2_10  and  C3_12 
REMARK       I    between atoms: C3_12  and  N1_14 
REMARK    7  A    between atoms: N1_14  and  C4_15 
REMARK    8  A    between atoms: C4_15  and  C13_16 
REMARK    9  A    between atoms: C4_15  and  C5_20 
REMARK   10  A    between atoms: C13_16  and  C14_17 
ROOT
HETATM    1  N2  BES   501      24.688   0.143  28.983  1.00  0.00    -0.423 N 
HETATM    2  H1  BES   501      24.486  -0.489  28.144  1.00  0.00     0.150 HD
HETATM    3  H2  BES   501      24.270  -0.089  29.941  1.00  0.00     0.150 HD
ENDROOT
BRANCH   1   4
HETATM    4  C1  BES   501      25.520   1.304  28.824  1.00  0.00     0.116 C 
BRANCH   4   5
HETATM    5  C6  BES   501      24.869   2.667  29.077  1.00  0.00     0.066 C 
BRANCH   5   6
HETATM    6  C7  BES   501      23.388   2.735  28.666  1.00  0.00    -0.056 A 
HETATM    7  C8  BES   501      22.996   2.673  27.310  1.00  0.00     0.007 A 
HETATM    8  C9  BES   501      21.628   2.733  26.964  1.00  0.00     0.001 A 
HETATM    9  C10 BES   501      20.660   2.841  27.958  1.00  0.00     0.000 A 
HETATM   10  C11 BES   501      21.051   2.896  29.308  1.00  0.00     0.001 A 
HETATM   11  C12 BES   501      22.418   2.836  29.656  1.00  0.00     0.007 A 
ENDBRANCH   5   6
ENDBRANCH   4   5
BRANCH   4  12
HETATM   12  C2  BES   501      25.968   1.304  27.396  1.00  0.00     0.232 C 
BRANCH  12  13
HETATM   13  O2  BES   501      25.341   0.276  26.745  1.00  0.00    -0.384 OA
HETATM   14  H12 BES   501      25.290  -0.560  27.377  1.00  0.00     0.210 HD
ENDBRANCH  12  13
BRANCH  12  15
HETATM   15  C3  BES   501      27.456   1.108  27.349  1.00  0.00     0.249 C 
HETATM   16  O3  BES   501      28.077   1.308  28.369  1.00  0.00    -0.271 OA
HETATM   17  N1  BES   501      28.083   0.687  26.089  1.00  0.00    -0.344 N 
HETATM   18  H23 BES   501      27.445   0.524  25.244  1.00  0.00     0.163 HD
BRANCH  17  19
HETATM   19  C4  BES   501      29.518   0.472  25.907  1.00  0.00     0.185 C 
BRANCH  19  20
HETATM   20  C13 BES   501      29.905  -0.906  26.453  1.00  0.00     0.040 C 
BRANCH  20  21
HETATM   21  C14 BES   501      30.989  -0.776  27.505  1.00  0.00    -0.020 C 
HETATM   22  C15 BES   501      31.433   0.685  27.590  1.00  0.00     0.009 C 
HETATM   23  C16 BES   501      30.504  -1.246  28.840  1.00  0.00     0.009 C 
ENDBRANCH  20  21
ENDBRANCH  19  20
BRANCH  19  24
HETATM   24  C5  BES   501      29.792   0.494  24.439  1.00  0.00     0.196 C 
HETATM   25  O1  BES   501      30.951   0.783  24.030  1.00  0.00    -0.646 OA
HETATM   26  O4  BES   501      28.840   0.168  23.663  1.00  0.00    -0.646 OA
ENDBRANCH  19  24
ENDBRANCH  17  19
ENDBRANCH  12  15
ENDBRANCH   4  12
ENDBRANCH   1   4
TORSDOF 10
ENDMDL
MODEL 7
REMARK VINA RESULT:    -7.306      1.473      2.077
REMARK INTER + INTRA:         -11.276
REMARK INTER:                 -11.607
REMARK INTRA:                   0.331
REMARK UNBOUND:                -0.126
REMARK  10 active torsions:
REMARK  status: ('A' for Active; 'I' for Inactive)
REMARK    1  A    between atoms: N2_1  and  C1_2 
REMARK    2  A    between atoms: C1_2  and  C6_3 
REMARK    3  A    between atoms: C1_2  and  C2_10 
REMARK    4  A    between atoms: C6_3  and  C7_4 
REMARK    5  A    between atoms: C2_10  and  O2_11 
REMARK    6  A    between atoms: C2_10  and  C3_12 
REMARK       I    between atoms: C3_12  and  N1_14 
REMARK    7  A    between atoms: N1_14  and  C4_15 
REMARK    8  A    between atoms: C4_15  and  C13_16 
REMARK    9  A    between atoms: C4_15  and  C5_20 
REMARK   10  A    between atoms: C13_16  and  C14_17 
ROOT
HETATM    1  N2  BES   501      25.053   0.326  26.962  1.00  0.00    -0.423 N 
HETATM    2  H1  BES   501      25.364   1.040  26.228  1.00  0.00     0.150 HD
HETATM    3  H2  BES   501      24.964  -0.708  26.698  1.00  0.00     0.150 HD
ENDROOT
BRANCH   1   4
HETATM    4  C1  BES   501      24.755   0.754  28.300  1.00  0.00     0.116 C 
BRANCH   4   5
HETATM    5  C6  BES   501      24.510   2.251  28.514  1.00  0.00     0.066 C 
BRANCH   5   6
HETATM    6  C7  BES   501      23.082   2.588  28.973  1.00  0.00    -0.056 A 
HETATM    7  C8  BES   501      22.793   2.896  30.322  1.00  0.00     0.007 A 
HETATM    8  C9  BES   501      21.472   3.206  30.712  1.00  0.00     0.001 A 
HETATM    9  C10 BES   501      20.450   3.222  29.767  1.00  0.00     0.000 A 
HETATM   10  C11 BES   501      20.739   2.923  28.423  1.00  0.00     0.001 A 
HETATM   11  C12 BES   501      22.060   2.612  28.031  1.00  0.00     0.007 A 
ENDBRANCH   5   6
ENDBRANCH   4   5
BRANCH   4  12
HETATM   12  C2  BES   501      25.950   0.395  29.129  1.00  0.00     0.232 C 
BRANCH  12  13
HETATM   13  O2  BES   501      25.796   0.949  30.372  1.00  0.00    -0.384 OA
HETATM   14  H12 BES   501      26.501   1.715  30.504  1.00  0.00     0.210 HD
ENDBRANCH  12  13
BRANCH  12  15
HETATM   15  C3  BES   501      27.184   0.943  28.474  1.00  0.00     0.249 C 
HETATM   16  O3  BES   501      27.138   2.080  28.060  1.00  0.00    -0.271 OA
HETATM   17  N1  BES   501      28.375   0.090  28.365  1.00  0.00    -0.344 N 
HETATM   18  H23 BES   501      28.320  -0.898  28.773  1.00  0.00     0.163 HD
BRANCH  17  19
HETATM   19  C4  BES   501      29.634   0.497  27.742  1.00  0.00     0.185 C 
BRANCH  19  20
HETATM   20  C13 BES   501      29.343   1.353  26.505  1.00  0.00     0.040 C 
BRANCH  20  21
HETATM   21  C14 BES   501      29.954   0.726  25.268  1.00  0.00    -0.020 C 
HETATM   22  C15 BES   501      31.478   0.805  25.365  1.00  0.00     0.009 C 
HETATM   23  C16 BES   501      29.520  -0.698  25.115  1.00  0.00     0.009 C 
ENDBRANCH  20  21
ENDBRANCH  19  20
BRANCH  19  24
HETATM   24  C5  BES   501      30.376   1.332  28.733  1.00  0.00     0.196 C 
HETATM   25  O1  BES   501      30.797   2.471  28.391  1.00  0.00    -0.646 OA
HETATM   26  O4  BES   501      30.506   0.864  29.907  1.00  0.00    -0.646 OA
ENDBRANCH  19  24
ENDBRANCH  17  19
ENDBRANCH  12  15
ENDBRANCH   4  12
ENDBRANCH   1   4
TORSDOF 10
ENDMDL
MODEL 8
REMARK VINA RESULT:    -7.302      1.904      8.151
REMARK INTER + INTRA:         -11.270
REMARK INTER:                 -10.920
REMARK INTRA:                  -0.350
REMARK UNBOUND:                -0.126
REMARK  10 active torsions:
REMARK  status: ('A' for Active; 'I' for Inactive)
REMARK    1  A    between atoms: N2_1  and  C1_2 
REMARK    2  A    between atoms: C1_2  and  C6_3 
REMARK    3  A    between atoms: C1_2  and  C2_10 
REMARK    4  A    between atoms: C6_3  and  C7_4 
REMARK    5  A    between atoms: C2_10  and  O2_11 
REMARK    6  A    between atoms: C2_10  and  C3_12 
REMARK       I    between atoms: C3_12  and  N1_14 
REMARK    7  A    between atoms: N1_14  and  C4_15 
REMARK    8  A    between atoms: C4_15  and  C13_16 
REMARK    9  A    between atoms: C4_15  and  C5_20 
REMARK   10  A    between atoms: C13_16  and  C14_17 
ROOT
HETATM    1  N2  BES   501      27.856  -0.929  28.086  1.00  0.00    -0.423 N 
HETATM    2  H1  BES   501      28.756  -1.316  28.517  1.00  0.00     0.150 HD
HETATM    3  H2  BES   501      26.973  -1.532  28.062  1.00  0.00     0.150 HD
ENDROOT
BRANCH   1   4
HETATM    4  C1  BES   501      27.834   0.400  27.540  1.00  0.00     0.116 C 
BRANCH   4   5
HETATM    5  C6  BES   501      29.185   1.032  27.191  1.00  0.00     0.066 C 
BRANCH   5   6
HETATM    6  C7  BES   501      30.022   0.204  26.202  1.00  0.00    -0.056 A 
HETATM    7  C8  BES   501      31.102  -0.595  26.639  1.00  0.00     0.007 A 
HETATM    8  C9  BES   501      31.849  -1.349  25.708  1.00  0.00     0.001 A 
HETATM    9  C10 BES   501      31.517  -1.317  24.356  1.00  0.00     0.000 A 
HETATM   10  C11 BES   501      30.437  -0.527  23.923  1.00  0.00     0.001 A 
HETATM   11  C12 BES   501      29.689   0.227  24.853  1.00  0.00     0.007 A 
ENDBRANCH   5   6
ENDBRANCH   4   5
BRANCH   4  12
HETATM   12  C2  BES   501      27.213   1.272  28.588  1.00  0.00     0.232 C 
BRANCH  12  13
HETATM   13  O2  BES   501      27.773   0.960  29.798  1.00  0.00    -0.384 OA
HETATM   14  H12 BES   501      27.044   1.030  30.549  1.00  0.00     0.210 HD
ENDBRANCH  12  13
BRANCH  12  15
HETATM   15  C3  BES   501      25.735   1.016  28.626  1.00  0.00     0.249 C 
HETATM   16  O3  BES   501      25.366  -0.134  28.534  1.00  0.00    -0.271 OA
HETATM   17  N1  BES   501      24.815   2.151  28.773  1.00  0.00    -0.344 N 
HETATM   18  H23 BES   501      25.241   3.130  28.859  1.00  0.00     0.163 HD
BRANCH  17  19
HETATM   19  C4  BES   501      23.358   2.040  28.813  1.00  0.00     0.185 C 
BRANCH  19  20
HETATM   20  C13 BES   501      22.779   3.162  29.681  1.00  0.00     0.040 C 
BRANCH  20  21
HETATM   21  C14 BES   501      21.377   2.812  30.138  1.00  0.00    -0.020 C 
HETATM   22  C15 BES   501      21.111   3.469  31.493  1.00  0.00     0.009 C 
HETATM   23  C16 BES   501      20.356   3.258  29.140  1.00  0.00     0.009 C 
ENDBRANCH  20  21
ENDBRANCH  19  20
BRANCH  19  24
HETATM   24  C5  BES   501      22.856   2.212  27.417  1.00  0.00     0.196 C 
HETATM   25  O1  BES   501      23.164   3.251  26.772  1.00  0.00    -0.646 OA
HETATM   26  O4  BES   501      22.170   1.262  26.924  1.00  0.00    -0.646 OA
ENDBRANCH  19  24
ENDBRANCH  17  19
ENDBRANCH  12  15
ENDBRANCH   4  12
ENDBRANCH   1   4
TORSDOF 10
ENDMDL
MODEL 9
REMARK VINA RESULT:    -7.243      2.328      3.084
REMARK INTER + INTRA:         -11.180
REMARK INTER:                 -10.322
REMARK INTRA:                  -0.858
REMARK UNBOUND:                -0.126
REMARK  10 active torsions:
REMARK  status: ('A' for Active; 'I' for Inactive)
REMARK    1  A    between atoms: N2_1  and  C1_2 
REMARK    2  A    between atoms: C1_2  and  C6_3 
REMARK    3  A    between atoms: C1_2  and  C2_10 
REMARK    4  A    between atoms: C6_3  and  C7_4 
REMARK    5  A    between atoms: C2_10  and  O2_11 
REMARK    6  A    between atoms: C2_10  and  C3_12 
REMARK       I    between atoms: C3_12  and  N1_14 
REMARK    7  A    between atoms: N1_14  and  C4_15 
REMARK    8  A    between atoms: C4_15  and  C13_16 
REMARK    9  A    between atoms: C4_15  and  C5_20 
REMARK   10  A    between atoms: C13_16  and  C14_17 
ROOT
HETATM    1  N2  BES   501      26.129  -0.896  28.444  1.00  0.00    -0.423 N 
HETATM    2  H1  BES   501      25.538  -1.716  28.093  1.00  0.00     0.150 HD
HETATM    3  H2  BES   501      27.083  -1.079  28.894  1.00  0.00     0.150 HD
ENDROOT
BRANCH   1   4
HETATM    4  C1  BES   501      25.643   0.450  28.313  1.00  0.00     0.116 C 
BRANCH   4   5
HETATM    5  C6  BES   501      24.423   0.665  27.411  1.00  0.00     0.066 C 
BRANCH   5   6
HETATM    6  C7  BES   501      23.327   1.538  28.045  1.00  0.00    -0.056 A 
HETATM    7  C8  BES   501      22.147   1.865  27.341  1.00  0.00     0.007 A 
HETATM    8  C9  BES   501      21.156   2.665  27.952  1.00  0.00     0.001 A 
HETATM    9  C10 BES   501      21.332   3.124  29.254  1.00  0.00     0.000 A 
HETATM   10  C11 BES   501      22.505   2.792  29.956  1.00  0.00     0.001 A 
HETATM   11  C12 BES   501      23.497   1.992  29.347  1.00  0.00     0.007 A 
ENDBRANCH   5   6
ENDBRANCH   4   5
BRANCH   4  12
HETATM   12  C2  BES   501      26.763   1.242  27.712  1.00  0.00     0.232 C 
BRANCH  12  13
HETATM   13  O2  BES   501      27.202   0.589  26.592  1.00  0.00    -0.384 OA
HETATM   14  H12 BES   501      26.389   0.392  25.959  1.00  0.00     0.210 HD
ENDBRANCH  12  13
BRANCH  12  15
HETATM   15  C3  BES   501      27.877   1.351  28.711  1.00  0.00     0.249 C 
HETATM   16  O3  BES   501      27.577   1.349  29.884  1.00  0.00    -0.271 OA
HETATM   17  N1  BES   501      29.262   1.454  28.231  1.00  0.00    -0.344 N 
HETATM   18  H23 BES   501      29.425   1.435  27.173  1.00  0.00     0.163 HD
BRANCH  17  19
HETATM   19  C4  BES   501      30.434   1.576  29.096  1.00  0.00     0.185 C 
BRANCH  19  20
HETATM   20  C13 BES   501      31.256   0.284  29.036  1.00  0.00     0.040 C 
BRANCH  20  21
HETATM   21  C14 BES   501      30.576  -0.738  28.147  1.00  0.00    -0.020 C 
HETATM   22  C15 BES   501      31.398  -0.919  26.870  1.00  0.00     0.009 C 
HETATM   23  C16 BES   501      30.423  -2.049  28.852  1.00  0.00     0.009 C 
ENDBRANCH  20  21
ENDBRANCH  19  20
BRANCH  19  24
HETATM   24  C5  BES   501      31.269   2.695  28.566  1.00  0.00     0.196 C 
HETATM   25  O1  BES   501      31.457   2.791  27.322  1.00  0.00    -0.646 OA
HETATM   26  O4  BES   501      31.715   3.538  29.406  1.00  0.00    -0.646 OA
ENDBRANCH  19  24
ENDBRANCH  17  19
ENDBRANCH  12  15
ENDBRANCH   4  12
ENDBRANCH   1   4
TORSDOF 10
ENDMDL
