MODEL 1
REMARK VINA RESULT:    -5.274      0.000      0.000
REMARK INTER + INTRA:          -6.075
REMARK INTER:                  -5.891
REMARK INTRA:                  -0.184
REMARK UNBOUND:                -0.184
REMARK  2 active torsions:
REMARK  status: ('A' for Active; 'I' for Inactive)
REMARK    1  A    between atoms: C9_9  and  C13_13 
REMARK    2  A    between atoms: C10_10  and  C14_14 
ROOT
HETATM    1  O1          0      47.652  21.797 237.541  1.00  0.00    -0.380 OA
HETATM    2  O2          0      47.193  18.656 240.324  1.00  0.00    -0.380 OA
HETATM    3  C7          0      47.328  21.016 239.686  1.00  0.00     0.052 C 
HETATM    4  C8          0      48.467  20.257 239.260  1.00  0.00     0.052 C 
HETATM    5  C9          0      46.547  21.287 238.368  1.00  0.00     0.161 C 
HETATM    6  C10         0      47.901  18.824 239.046  1.00  0.00     0.161 C 
HETATM    7  C11         0      48.943  21.116 238.049  1.00  0.00     0.176 C 
HETATM    8  C12         0      46.745  20.064 240.775  1.00  0.00     0.176 C 
ENDROOT
BRANCH   5   9
HETATM    9  C13         0      45.398  22.322 238.585  1.00  0.00    -0.026 A 
HETATM   10  C15         0      44.696  22.277 239.740  1.00  0.00     0.049 A 
HETATM   11  C19         0      43.545  23.189 239.875  1.00  0.00     0.105 A 
HETATM   12  O3          0      42.719  23.299 240.939  1.00  0.00    -0.323 OA
HETATM   13  C23         0      43.182  23.986 238.941  1.00  0.00     0.105 A 
HETATM   14  C25         0      41.708  24.288 240.632  1.00  0.00     0.352 A 
HETATM   15  O5          0      42.090  24.694 239.301  1.00  0.00    -0.323 OA
HETATM   16  C21         0      43.896  24.073 237.675  1.00  0.00     0.040 A 
HETATM   17  C17         0      44.963  23.275 237.510  1.00  0.00     0.012 A 
ENDBRANCH   5   9
BRANCH   6  18
HETATM   18  C14         0      49.044  17.784 238.821  1.00  0.00    -0.026 A 
HETATM   19  C18         0      50.491  18.182 238.778  1.00  0.00     0.012 A 
HETATM   20  C22         0      51.467  17.261 238.704  1.00  0.00     0.040 A 
HETATM   21  C24         0      51.065  15.861 238.658  1.00  0.00     0.105 A 
HETATM   22  O6          0      51.883  14.791 238.589  1.00  0.00    -0.323 OA
HETATM   23  C20         0      49.837  15.504 238.681  1.00  0.00     0.105 A 
HETATM   24  C26         0      51.069  13.600 238.572  1.00  0.00     0.352 A 
HETATM   25  O4          0      49.734  14.156 238.631  1.00  0.00    -0.323 OA
HETATM   26  C16         0      48.727  16.471 238.781  1.00  0.00     0.049 A 
ENDBRANCH   6  18
TORSDOF 2
ENDMDL
MODEL 2
REMARK VINA RESULT:    -5.246      0.026      9.013
REMARK INTER + INTRA:          -6.043
REMARK INTER:                  -5.859
REMARK INTRA:                  -0.184
REMARK UNBOUND:                -0.184
REMARK  2 active torsions:
REMARK  status: ('A' for Active; 'I' for Inactive)
REMARK    1  A    between atoms: C9_9  and  C13_13 
REMARK    2  A    between atoms: C10_10  and  C14_14 
ROOT
HETATM    1  O1          0      47.196  18.674 240.337  1.00  0.00    -0.380 OA
HETATM    2  O2          0      47.633  21.792 237.525  1.00  0.00    -0.380 OA
HETATM    3  C7          0      48.463  20.262 239.246  1.00  0.00     0.052 C 
HETATM    4  C8          0      47.332  21.028 239.680  1.00  0.00     0.052 C 
HETATM    5  C9          0      47.889  18.829 239.049  1.00  0.00     0.161 C 
HETATM    6  C10         0      46.537  21.292 238.368  1.00  0.00     0.161 C 
HETATM    7  C11         0      46.758  20.087 240.784  1.00  0.00     0.176 C 
HETATM    8  C12         0      48.927  21.110 238.022  1.00  0.00     0.176 C 
ENDROOT
BRANCH   5   9
HETATM    9  C13         0      49.026  17.783 238.820  1.00  0.00    -0.026 A 
HETATM   10  C15         0      48.703  16.470 238.797  1.00  0.00     0.049 A 
HETATM   11  C19         0      49.807  15.497 238.691  1.00  0.00     0.105 A 
HETATM   12  O3          0      49.700  14.151 238.655  1.00  0.00    -0.323 OA
HETATM   13  C23         0      51.037  15.851 238.651  1.00  0.00     0.105 A 
HETATM   14  C25         0      51.031  13.588 238.585  1.00  0.00     0.352 A 
HETATM   15  O5          0      51.851  14.776 238.580  1.00  0.00    -0.323 OA
HETATM   16  C21         0      51.444  17.249 238.678  1.00  0.00     0.040 A 
HETATM   17  C17         0      50.474  18.175 238.756  1.00  0.00     0.012 A 
ENDBRANCH   5   9
BRANCH   6  18
HETATM   18  C14         0      45.394  22.332 238.591  1.00  0.00    -0.026 A 
HETATM   19  C18         0      44.966  23.294 237.521  1.00  0.00     0.012 A 
HETATM   20  C22         0      43.903  24.099 237.689  1.00  0.00     0.040 A 
HETATM   21  C24         0      43.187  24.007 238.954  1.00  0.00     0.105 A 
HETATM   22  O6          0      42.098  24.718 239.316  1.00  0.00    -0.323 OA
HETATM   23  C20         0      43.543  23.203 239.883  1.00  0.00     0.105 A 
HETATM   24  C26         0      41.711  24.307 240.644  1.00  0.00     0.352 A 
HETATM   25  O4          0      42.715  23.309 240.947  1.00  0.00    -0.323 OA
HETATM   26  C16         0      44.689  22.284 239.744  1.00  0.00     0.049 A 
ENDBRANCH   6  18
TORSDOF 2
ENDMDL
MODEL 3
REMARK VINA RESULT:    -5.043      1.087      1.292
REMARK INTER + INTRA:          -5.817
REMARK INTER:                  -5.327
REMARK INTRA:                  -0.490
REMARK UNBOUND:                -0.184
REMARK  2 active torsions:
REMARK  status: ('A' for Active; 'I' for Inactive)
REMARK    1  A    between atoms: C9_9  and  C13_13 
REMARK    2  A    between atoms: C10_10  and  C14_14 
ROOT
HETATM    1  O1          0      46.237  22.209 237.738  1.00  0.00    -0.380 OA
HETATM    2  O2          0      47.029  19.621 240.979  1.00  0.00    -0.380 OA
HETATM    3  C7          0      46.676  21.823 239.969  1.00  0.00     0.052 C 
HETATM    4  C8          0      47.716  21.075 239.325  1.00  0.00     0.052 C 
HETATM    5  C9          0      45.506  21.791 238.944  1.00  0.00     0.161 C 
HETATM    6  C10         0      47.289  19.594 239.531  1.00  0.00     0.161 C 
HETATM    7  C11         0      47.694  21.722 237.907  1.00  0.00     0.176 C 
HETATM    8  C12         0      46.571  21.056 241.322  1.00  0.00     0.176 C 
ENDROOT
BRANCH   5   9
HETATM    9  C13         0      44.359  22.771 239.352  1.00  0.00    -0.026 A 
HETATM   10  C15         0      43.445  22.355 240.258  1.00  0.00     0.049 A 
HETATM   11  C19         0      42.311  23.254 240.543  1.00  0.00     0.105 A 
HETATM   12  O3          0      41.296  23.028 241.407  1.00  0.00    -0.323 OA
HETATM   13  C23         0      42.155  24.378 239.951  1.00  0.00     0.105 A 
HETATM   14  C25         0      40.386  24.152 241.347  1.00  0.00     0.352 A 
HETATM   15  O5          0      41.030  24.997 240.369  1.00  0.00    -0.323 OA
HETATM   16  C21         0      43.103  24.873 238.963  1.00  0.00     0.040 A 
HETATM   17  C17         0      44.164  24.099 238.681  1.00  0.00     0.012 A 
ENDBRANCH   5   9
BRANCH   6  18
HETATM   18  C14         0      48.429  18.607 239.119  1.00  0.00    -0.026 A 
HETATM   19  C18         0      49.785  19.086 238.687  1.00  0.00     0.012 A 
HETATM   20  C22         0      50.787  18.223 238.451  1.00  0.00     0.040 A 
HETATM   21  C24         0      50.505  16.804 238.623  1.00  0.00     0.105 A 
HETATM   22  O6          0      51.370  15.784 238.444  1.00  0.00    -0.323 OA
HETATM   23  C20         0      49.352  16.377 238.979  1.00  0.00     0.105 A 
HETATM   24  C26         0      50.678  14.550 238.729  1.00  0.00     0.352 A 
HETATM   25  O4          0      49.354  15.027 239.069  1.00  0.00    -0.323 OA
HETATM   26  C16         0      48.223  17.280 239.269  1.00  0.00     0.049 A 
ENDBRANCH   6  18
TORSDOF 2
ENDMDL
MODEL 4
REMARK VINA RESULT:    -4.857      0.972      1.515
REMARK INTER + INTRA:          -5.609
REMARK INTER:                  -5.145
REMARK INTRA:                  -0.464
REMARK UNBOUND:                -0.184
REMARK  2 active torsions:
REMARK  status: ('A' for Active; 'I' for Inactive)
REMARK    1  A    between atoms: C9_9  and  C13_13 
REMARK    2  A    between atoms: C10_10  and  C14_14 
ROOT
HETATM    1  O1          0      46.776  21.956 237.564  1.00  0.00    -0.380 OA
HETATM    2  O2          0      47.116  19.185 240.732  1.00  0.00    -0.380 OA
HETATM    3  C7          0      46.962  21.446 239.805  1.00  0.00     0.052 C 
HETATM    4  C8          0      48.032  20.682 239.235  1.00  0.00     0.052 C 
HETATM    5  C9          0      45.905  21.516 238.665  1.00  0.00     0.161 C 
HETATM    6  C10         0      47.525  19.213 239.319  1.00  0.00     0.161 C 
HETATM    7  C11         0      48.185  21.394 237.856  1.00  0.00     0.176 C 
HETATM    8  C12         0      46.684  20.622 241.100  1.00  0.00     0.176 C 
ENDROOT
BRANCH   5   9
HETATM    9  C13         0      44.764  22.528 239.003  1.00  0.00    -0.026 A 
HETATM   10  C15         0      44.682  23.673 238.290  1.00  0.00     0.049 A 
HETATM   11  C19         0      43.667  24.662 238.701  1.00  0.00     0.105 A 
HETATM   12  O3          0      43.426  25.862 238.127  1.00  0.00    -0.323 OA
HETATM   13  C23         0      42.898  24.483 239.708  1.00  0.00     0.105 A 
HETATM   14  C25         0      42.373  26.520 238.870  1.00  0.00     0.352 A 
HETATM   15  O5          0      42.079  25.541 239.890  1.00  0.00    -0.323 OA
HETATM   16  C21         0      42.945  23.273 240.516  1.00  0.00     0.040 A 
HETATM   17  C17         0      43.841  22.333 240.171  1.00  0.00     0.012 A 
ENDBRANCH   5   9
BRANCH   6  18
HETATM   18  C14         0      48.660  18.195 238.976  1.00  0.00    -0.026 A 
HETATM   19  C18         0      50.078  18.627 238.738  1.00  0.00     0.012 A 
HETATM   20  C22         0      51.061  17.729 238.562  1.00  0.00     0.040 A 
HETATM   21  C24         0      50.696  16.319 238.604  1.00  0.00     0.105 A 
HETATM   22  O6          0      51.529  15.268 238.457  1.00  0.00    -0.323 OA
HETATM   23  C20         0      49.491  15.932 238.793  1.00  0.00     0.105 A 
HETATM   24  C26         0      50.753  14.057 238.575  1.00  0.00     0.352 A 
HETATM   25  O4          0      49.421  14.581 238.790  1.00  0.00    -0.323 OA
HETATM   26  C16         0      48.377  16.874 239.010  1.00  0.00     0.049 A 
ENDBRANCH   6  18
TORSDOF 2
ENDMDL
MODEL 5
REMARK VINA RESULT:    -4.854      0.971      9.156
REMARK INTER + INTRA:          -5.606
REMARK INTER:                  -5.130
REMARK INTRA:                  -0.475
REMARK UNBOUND:                -0.184
REMARK  2 active torsions:
REMARK  status: ('A' for Active; 'I' for Inactive)
REMARK    1  A    between atoms: C9_9  and  C13_13 
REMARK    2  A    between atoms: C10_10  and  C14_14 
ROOT
HETATM    1  O1          0      47.166  19.208 240.762  1.00  0.00    -0.380 OA
HETATM    2  O2          0      46.739  21.945 237.576  1.00  0.00    -0.380 OA
HETATM    3  C7          0      48.039  20.701 239.237  1.00  0.00     0.052 C 
HETATM    4  C8          0      46.969  21.458 239.819  1.00  0.00     0.052 C 
HETATM    5  C9          0      47.552  19.227 239.343  1.00  0.00     0.161 C 
HETATM    6  C10         0      45.893  21.505 238.696  1.00  0.00     0.161 C 
HETATM    7  C11         0      46.724  20.643 241.125  1.00  0.00     0.176 C 
HETATM    8  C12         0      48.159  21.402 237.849  1.00  0.00     0.176 C 
ENDROOT
BRANCH   5   9
HETATM    9  C13         0      48.693  18.220 238.990  1.00  0.00    -0.026 A 
HETATM   10  C15         0      48.421  16.896 239.024  1.00  0.00     0.049 A 
HETATM   11  C19         0      49.541  15.963 238.796  1.00  0.00     0.105 A 
HETATM   12  O3          0      49.482  14.613 238.791  1.00  0.00    -0.323 OA
HETATM   13  C23         0      50.742  16.362 238.601  1.00  0.00     0.105 A 
HETATM   14  C25         0      50.816  14.099 238.566  1.00  0.00     0.352 A 
HETATM   15  O5          0      51.582  15.317 238.446  1.00  0.00    -0.323 OA
HETATM   16  C21         0      51.094  17.774 238.561  1.00  0.00     0.040 A 
HETATM   17  C17         0      50.105  18.664 238.744  1.00  0.00     0.012 A 
ENDBRANCH   5   9
BRANCH   6  18
HETATM   18  C14         0      44.745  22.505 239.045  1.00  0.00    -0.026 A 
HETATM   19  C18         0      43.833  22.299 240.220  1.00  0.00     0.012 A 
HETATM   20  C22         0      42.930  23.229 240.574  1.00  0.00     0.040 A 
HETATM   21  C24         0      42.866  24.441 239.769  1.00  0.00     0.105 A 
HETATM   22  O6          0      42.039  25.491 239.960  1.00  0.00    -0.323 OA
HETATM   23  C20         0      43.626  24.629 238.758  1.00  0.00     0.105 A 
HETATM   24  C26         0      42.316  26.475 238.941  1.00  0.00     0.352 A 
HETATM   25  O4          0      43.370  25.829 238.188  1.00  0.00    -0.323 OA
HETATM   26  C16         0      44.647  23.652 238.336  1.00  0.00     0.049 A 
ENDBRANCH   6  18
TORSDOF 2
ENDMDL
MODEL 6
REMARK VINA RESULT:    -4.025      1.253      8.886
REMARK INTER + INTRA:          -4.680
REMARK INTER:                  -4.339
REMARK INTRA:                  -0.340
REMARK UNBOUND:                -0.184
REMARK  2 active torsions:
REMARK  status: ('A' for Active; 'I' for Inactive)
REMARK    1  A    between atoms: C9_9  and  C13_13 
REMARK    2  A    between atoms: C10_10  and  C14_14 
ROOT
HETATM    1  O1          0      48.211  20.886 237.460  1.00  0.00    -0.380 OA
HETATM    2  O2          0      45.884  20.145 240.904  1.00  0.00    -0.380 OA
HETATM    3  C7          0      46.994  19.481 238.826  1.00  0.00     0.052 C 
HETATM    4  C8          0      46.093  20.582 238.649  1.00  0.00     0.052 C 
HETATM    5  C9          0      48.403  20.131 238.708  1.00  0.00     0.161 C 
HETATM    6  C10         0      46.114  21.303 240.028  1.00  0.00     0.161 C 
HETATM    7  C11         0      46.713  21.256 237.387  1.00  0.00     0.176 C 
HETATM    8  C12         0      46.488  18.916 240.189  1.00  0.00     0.176 C 
ENDROOT
BRANCH   5   9
HETATM    9  C13         0      49.527  19.050 238.620  1.00  0.00    -0.026 A 
HETATM   10  C15         0      49.190  17.751 238.785  1.00  0.00     0.049 A 
HETATM   11  C19         0      50.282  16.760 238.809  1.00  0.00     0.105 A 
HETATM   12  O3          0      50.160  15.423 238.964  1.00  0.00    -0.323 OA
HETATM   13  C23         0      51.516  17.090 238.709  1.00  0.00     0.105 A 
HETATM   14  C25         0      51.485  14.840 238.963  1.00  0.00     0.352 A 
HETATM   15  O5          0      52.317  16.006 238.784  1.00  0.00    -0.323 OA
HETATM   16  C21         0      51.938  18.472 238.535  1.00  0.00     0.040 A 
HETATM   17  C17         0      50.978  19.411 238.489  1.00  0.00     0.012 A 
ENDBRANCH   5   9
BRANCH   6  18
HETATM   18  C14         0      44.996  22.391 240.121  1.00  0.00    -0.026 A 
HETATM   19  C18         0      45.063  23.676 239.348  1.00  0.00     0.012 A 
HETATM   20  C22         0      44.038  24.545 239.348  1.00  0.00     0.040 A 
HETATM   21  C24         0      42.863  24.195 240.134  1.00  0.00     0.105 A 
HETATM   22  O6          0      41.733  24.922 240.261  1.00  0.00    -0.323 OA
HETATM   23  C20         0      42.793  23.110 240.810  1.00  0.00     0.105 A 
HETATM   24  C26         0      40.827  24.203 241.123  1.00  0.00     0.352 A 
HETATM   25  O4          0      41.601  23.023 241.445  1.00  0.00    -0.323 OA
HETATM   26  C16         0      43.879  22.113 240.830  1.00  0.00     0.049 A 
ENDBRANCH   6  18
TORSDOF 2
ENDMDL
MODEL 7
REMARK VINA RESULT:    -3.744      5.367      7.177
REMARK INTER + INTRA:          -4.366
REMARK INTER:                  -3.780
REMARK INTRA:                  -0.586
REMARK UNBOUND:                -0.184
REMARK  2 active torsions:
REMARK  status: ('A' for Active; 'I' for Inactive)
REMARK    1  A    between atoms: C9_9  and  C13_13 
REMARK    2  A    between atoms: C10_10  and  C14_14 
ROOT
HETATM    1  O1          0      41.757  23.925 241.753  1.00  0.00    -0.380 OA
HETATM    2  O2          0      45.527  22.194 240.968  1.00  0.00    -0.380 OA
HETATM    3  C7          0      43.195  22.706 240.425  1.00  0.00     0.052 C 
HETATM    4  C8          0      43.342  22.061 241.696  1.00  0.00     0.052 C 
HETATM    5  C9          0      42.842  24.177 240.793  1.00  0.00     0.161 C 
HETATM    6  C10         0      44.752  22.508 242.179  1.00  0.00     0.161 C 
HETATM    7  C11         0      42.056  22.563 242.420  1.00  0.00     0.176 C 
HETATM    8  C12         0      44.566  22.357 239.769  1.00  0.00     0.176 C 
ENDROOT
BRANCH   5   9
HETATM    9  C13         0      42.391  24.989 239.537  1.00  0.00    -0.026 A 
HETATM   10  C15         0      43.224  25.933 239.044  1.00  0.00     0.049 A 
HETATM   11  C19         0      42.731  26.762 237.928  1.00  0.00     0.105 A 
HETATM   12  O3          0      43.399  27.753 237.298  1.00  0.00    -0.323 OA
HETATM   13  C23         0      41.552  26.636 237.442  1.00  0.00     0.105 A 
HETATM   14  C25         0      42.530  28.323 236.291  1.00  0.00     0.352 A 
HETATM   15  O5          0      41.337  27.525 236.450  1.00  0.00    -0.323 OA
HETATM   16  C21         0      40.611  25.641 237.938  1.00  0.00     0.040 A 
HETATM   17  C17         0      41.020  24.848 238.942  1.00  0.00     0.012 A 
ENDBRANCH   5   9
BRANCH   6  18
HETATM   18  C14         0      45.208  21.704 243.439  1.00  0.00    -0.026 A 
HETATM   19  C18         0      46.220  20.598 243.361  1.00  0.00     0.012 A 
HETATM   20  C22         0      46.687  20.000 244.470  1.00  0.00     0.040 A 
HETATM   21  C24         0      46.167  20.461 245.750  1.00  0.00     0.105 A 
HETATM   22  O6          0      46.509  19.999 246.971  1.00  0.00    -0.323 OA
HETATM   23  C20         0      45.295  21.393 245.836  1.00  0.00     0.105 A 
HETATM   24  C26         0      45.761  20.738 247.959  1.00  0.00     0.352 A 
HETATM   25  O4          0      44.983  21.634 247.130  1.00  0.00    -0.323 OA
HETATM   26  C16         0      44.763  22.097 244.653  1.00  0.00     0.049 A 
ENDBRANCH   6  18
TORSDOF 2
ENDMDL
MODEL 8
REMARK VINA RESULT:    -3.744      5.397      9.782
REMARK INTER + INTRA:          -4.366
REMARK INTER:                  -3.789
REMARK INTRA:                  -0.577
REMARK UNBOUND:                -0.184
REMARK  2 active torsions:
REMARK  status: ('A' for Active; 'I' for Inactive)
REMARK    1  A    between atoms: C9_9  and  C13_13 
REMARK    2  A    between atoms: C10_10  and  C14_14 
ROOT
HETATM    1  O1          0      45.545  22.192 241.045  1.00  0.00    -0.380 OA
HETATM    2  O2          0      41.762  23.910 241.796  1.00  0.00    -0.380 OA
HETATM    3  C7          0      43.356  22.052 241.757  1.00  0.00     0.052 C 
HETATM    4  C8          0      43.216  22.693 240.483  1.00  0.00     0.052 C 
HETATM    5  C9          0      44.761  22.506 242.249  1.00  0.00     0.161 C 
HETATM    6  C10         0      42.854  24.162 240.843  1.00  0.00     0.161 C 
HETATM    7  C11         0      44.593  22.346 239.838  1.00  0.00     0.176 C 
HETATM    8  C12         0      42.063  22.553 242.469  1.00  0.00     0.176 C 
ENDROOT
BRANCH   5   9
HETATM    9  C13         0      45.210  21.709 243.515  1.00  0.00    -0.026 A 
HETATM   10  C15         0      44.732  22.087 244.721  1.00  0.00     0.049 A 
HETATM   11  C19         0      45.257  21.391 245.912  1.00  0.00     0.105 A 
HETATM   12  O3          0      44.914  21.619 247.199  1.00  0.00    -0.323 OA
HETATM   13  C23         0      46.152  20.479 245.839  1.00  0.00     0.105 A 
HETATM   14  C25         0      45.695  20.739 248.042  1.00  0.00     0.352 A 
HETATM   15  O5          0      46.480  20.020 247.066  1.00  0.00    -0.323 OA
HETATM   16  C21         0      46.707  20.036 244.569  1.00  0.00     0.040 A 
HETATM   17  C17         0      46.249  20.627 243.453  1.00  0.00     0.012 A 
ENDBRANCH   5   9
BRANCH   6  18
HETATM   18  C14         0      42.410  24.969 239.581  1.00  0.00    -0.026 A 
HETATM   19  C18         0      41.045  24.818 238.974  1.00  0.00     0.012 A 
HETATM   20  C22         0      40.640  25.605 237.963  1.00  0.00     0.040 A 
HETATM   21  C24         0      41.580  26.606 237.474  1.00  0.00     0.105 A 
HETATM   22  O6          0      41.367  27.491 236.479  1.00  0.00    -0.323 OA
HETATM   23  C20         0      42.751  26.740 237.970  1.00  0.00     0.105 A 
HETATM   24  C26         0      42.555  28.296 236.328  1.00  0.00     0.352 A 
HETATM   25  O4          0      43.420  27.736 237.344  1.00  0.00    -0.323 OA
HETATM   26  C16         0      43.241  25.917 239.092  1.00  0.00     0.049 A 
ENDBRANCH   6  18
TORSDOF 2
ENDMDL
MODEL 9
REMARK VINA RESULT:    -3.194      1.710      2.641
REMARK INTER + INTRA:          -3.751
REMARK INTER:                  -3.072
REMARK INTRA:                  -0.679
REMARK UNBOUND:                -0.184
REMARK  2 active torsions:
REMARK  status: ('A' for Active; 'I' for Inactive)
REMARK    1  A    between atoms: C9_9  and  C13_13 
REMARK    2  A    between atoms: C10_10  and  C14_14 
ROOT
HETATM    1  O1          0      46.383  22.820 240.553  1.00  0.00    -0.380 OA
HETATM    2  O2          0      46.150  18.856 239.118  1.00  0.00    -0.380 OA
HETATM    3  C7          0      45.628  20.646 240.704  1.00  0.00     0.052 C 
HETATM    4  C8          0      47.037  20.461 240.516  1.00  0.00     0.052 C 
HETATM    5  C9          0      45.326  21.982 239.966  1.00  0.00     0.161 C 
HETATM    6  C10         0      47.151  19.932 239.058  1.00  0.00     0.161 C 
HETATM    7  C11         0      47.562  21.881 240.893  1.00  0.00     0.176 C 
HETATM    8  C12         0      45.089  19.291 240.153  1.00  0.00     0.176 C 
ENDROOT
BRANCH   5   9
HETATM    9  C13         0      43.881  22.491 240.271  1.00  0.00    -0.026 A 
HETATM   10  C15         0      43.273  23.292 239.367  1.00  0.00     0.049 A 
HETATM   11  C19         0      41.956  23.850 239.727  1.00  0.00     0.105 A 
HETATM   12  O3          0      41.189  24.668 238.973  1.00  0.00    -0.323 OA
HETATM   13  C23         0      41.396  23.625 240.857  1.00  0.00     0.105 A 
HETATM   14  C25         0      39.998  25.000 239.725  1.00  0.00     0.352 A 
HETATM   15  O5          0      40.213  24.268 240.951  1.00  0.00    -0.323 OA
HETATM   16  C21         0      42.007  22.776 241.870  1.00  0.00     0.040 A 
HETATM   17  C17         0      43.200  22.229 241.582  1.00  0.00     0.012 A 
ENDBRANCH   5   9
BRANCH   6  18
HETATM   18  C14         0      48.596  19.427 238.743  1.00  0.00    -0.026 A 
HETATM   19  C18         0      49.686  20.353 238.287  1.00  0.00     0.012 A 
HETATM   20  C22         0      50.950  19.923 238.136  1.00  0.00     0.040 A 
HETATM   21  C24         0      51.219  18.521 238.426  1.00  0.00     0.105 A 
HETATM   22  O6          0      52.413  17.898 238.344  1.00  0.00    -0.323 OA
HETATM   23  C20         0      50.301  17.714 238.804  1.00  0.00     0.105 A 
HETATM   24  C26         0      52.230  16.518 238.725  1.00  0.00     0.352 A 
HETATM   25  O4          0      50.811  16.478 239.009  1.00  0.00    -0.323 OA
HETATM   26  C16         0      48.902  18.137 239.004  1.00  0.00     0.049 A 
ENDBRANCH   6  18
TORSDOF 2
ENDMDL
