MODEL 1
REMARK VINA RESULT:    -7.736      0.000      0.000
REMARK INTER + INTRA:          -8.640
REMARK INTER:                  -8.640
REMARK INTRA:                   0.000
REMARK UNBOUND:                 0.000
REMARK  Name = HEMCA.pdb
REMARK  4 active torsions:
REMARK  status: ('A' for Active; 'I' for Inactive)
REMARK    1  A    between atoms: C5_5  and  O19_19
REMARK    2  A    between atoms: C6_6  and  O18_18
REMARK    3  A    between atoms: C7_7  and  O20_20
REMARK    4  A    between atoms: C17_17  and  O21_21
REMARK                            x       y       z     vdW  Elec       q    Type
REMARK                         _______ _______ _______ _____ _____    ______ ____
ROOT
ATOM      1  C1  UNK H   1     -34.942  15.541 -24.585  0.00  0.00    +0.000 A 
ATOM      2  C2  UNK H   1     -34.037  14.645 -24.976  0.00  0.00    +0.000 A 
ATOM      3  C3  UNK H   1     -34.561  16.604 -23.634  0.00  0.00    +0.000 A 
ATOM      4  C4  UNK H   1     -32.671  14.705 -24.453  0.00  0.00    +0.000 A 
ATOM      5  C5  UNK H   1     -33.321  16.645 -23.152  0.00  0.00    +0.000 A 
ATOM      6  C6  UNK H   1     -32.334  15.651 -23.578  0.00  0.00    +0.000 A 
ATOM      7  C7  UNK H   1     -37.299  16.426 -24.357  0.00  0.00    +0.000 C 
ATOM      8  C8  UNK H   1     -36.344  15.519 -25.017  0.00  0.00    +0.000 C 
ATOM      9  C9  UNK H   1     -36.695  17.776 -23.973  0.00  0.00    +0.000 C 
ATOM     10  O10 UNK H   1     -35.480  17.583 -23.256  0.00  0.00    +0.000 OA
ATOM     11  C11 UNK H   1     -38.569  16.427 -25.268  0.00  0.00    +0.000 C 
ATOM     12  C12 UNK H   1     -38.347  15.105 -25.946  0.00  0.00    +0.000 C 
ATOM     13  C13 UNK H   1     -36.987  14.702 -25.852  0.00  0.00    +0.000 C 
ATOM     14  C14 UNK H   1     -39.235  14.442 -26.676  0.00  0.00    +0.000 C 
ATOM     15  C15 UNK H   1     -38.777  13.233 -27.378  0.00  0.00    +0.000 C 
ATOM     16  C16 UNK H   1     -36.478  13.564 -26.614  0.00  0.00    +0.000 C 
ATOM     17  C17 UNK H   1     -37.342  12.852 -27.341  0.00  0.00    +0.000 C 
ATOM     18  O22 UNK H   1     -39.575  12.567 -28.046  0.00  0.00    +0.000 OA
ENDROOT
BRANCH   6  19
ATOM     19  O18 UNK H   1     -31.036  15.704 -23.080  0.00  0.00    +0.000 OA
ATOM     20  H9  UNK H   1     -31.045  15.478 -22.054  0.00  0.00    +0.000 HD
ENDBRANCH   6  19
BRANCH   5  21
ATOM     21  O19 UNK H   1     -32.956  17.649 -22.263  0.00  0.00    +0.000 OA
ATOM     22  H10 UNK H   1     -32.522  17.220 -21.408  0.00  0.00    +0.000 HD
ENDBRANCH   5  21
BRANCH   7  23
ATOM     23  O20 UNK H   1     -37.631  15.724 -23.158  0.00  0.00    +0.000 OA
ATOM     24  H11 UNK H   1     -37.078  14.833 -23.108  0.00  0.00    +0.000 HD
ENDBRANCH   7  23
BRANCH  17  25
ATOM     25  O21 UNK H   1     -36.897  11.752 -28.064  0.00  0.00    +0.000 OA
ATOM     26  H12 UNK H   1     -36.299  12.077 -28.864  0.00  0.00    +0.000 HD
ENDBRANCH  17  25
TORSDOF 4
ENDMDL
MODEL 2
REMARK VINA RESULT:    -7.706      2.529      6.136
REMARK INTER + INTRA:          -8.607
REMARK INTER:                  -8.607
REMARK INTRA:                   0.000
REMARK UNBOUND:                 0.000
REMARK  Name = HEMCA.pdb
REMARK  4 active torsions:
REMARK  status: ('A' for Active; 'I' for Inactive)
REMARK    1  A    between atoms: C5_5  and  O19_19
REMARK    2  A    between atoms: C6_6  and  O18_18
REMARK    3  A    between atoms: C7_7  and  O20_20
REMARK    4  A    between atoms: C17_17  and  O21_21
REMARK                            x       y       z     vdW  Elec       q    Type
REMARK                         _______ _______ _______ _____ _____    ______ ____
ROOT
ATOM      1  C1  UNK H   1     -37.206  15.518 -25.651  0.00  0.00    +0.000 A 
ATOM      2  C2  UNK H   1     -38.535  15.601 -25.594  0.00  0.00    +0.000 A 
ATOM      3  C3  UNK H   1     -36.555  14.194 -25.703  0.00  0.00    +0.000 A 
ATOM      4  C4  UNK H   1     -39.346  14.383 -25.571  0.00  0.00    +0.000 A 
ATOM      5  C5  UNK H   1     -37.298  13.090 -25.669  0.00  0.00    +0.000 A 
ATOM      6  C6  UNK H   1     -38.757  13.189 -25.597  0.00  0.00    +0.000 A 
ATOM      7  C7  UNK H   1     -34.870  16.466 -25.472  0.00  0.00    +0.000 C 
ATOM      8  C8  UNK H   1     -36.318  16.685 -25.621  0.00  0.00    +0.000 C 
ATOM      9  C9  UNK H   1     -34.366  15.208 -26.178  0.00  0.00    +0.000 C 
ATOM     10  O10 UNK H   1     -35.168  14.088 -25.817  0.00  0.00    +0.000 OA
ATOM     11  C11 UNK H   1     -34.201  17.828 -25.844  0.00  0.00    +0.000 C 
ATOM     12  C12 UNK H   1     -35.376  18.723 -25.570  0.00  0.00    +0.000 C 
ATOM     13  C13 UNK H   1     -36.593  17.989 -25.574  0.00  0.00    +0.000 C 
ATOM     14  C14 UNK H   1     -35.347  20.047 -25.483  0.00  0.00    +0.000 C 
ATOM     15  C15 UNK H   1     -36.631  20.754 -25.355  0.00  0.00    +0.000 C 
ATOM     16  C16 UNK H   1     -37.888  18.665 -25.546  0.00  0.00    +0.000 C 
ATOM     17  C17 UNK H   1     -37.905  19.995 -25.432  0.00  0.00    +0.000 C 
ATOM     18  O22 UNK H   1     -36.651  21.984 -25.241  0.00  0.00    +0.000 OA
ENDROOT
BRANCH   6  19
ATOM     19  O18 UNK H   1     -39.530  12.033 -25.572  0.00  0.00    +0.000 OA
ATOM     20  H9  UNK H   1     -40.505  12.270 -25.261  0.00  0.00    +0.000 HD
ENDBRANCH   6  19
BRANCH   5  21
ATOM     21  O19 UNK H   1     -36.688  11.842 -25.726  0.00  0.00    +0.000 OA
ATOM     22  H10 UNK H   1     -37.420  11.091 -25.681  0.00  0.00    +0.000 HD
ENDBRANCH   5  21
BRANCH   7  23
ATOM     23  O20 UNK H   1     -34.717  16.282 -24.063  0.00  0.00    +0.000 OA
ATOM     24  H11 UNK H   1     -34.019  16.973 -23.693  0.00  0.00    +0.000 HD
ENDBRANCH   7  23
BRANCH  17  25
ATOM     25  O21 UNK H   1     -39.119  20.671 -25.385  0.00  0.00    +0.000 OA
ATOM     26  H12 UNK H   1     -39.430  20.764 -24.386  0.00  0.00    +0.000 HD
ENDBRANCH  17  25
TORSDOF 4
ENDMDL
MODEL 3
REMARK VINA RESULT:    -7.145      2.696      4.720
REMARK INTER + INTRA:          -7.981
REMARK INTER:                  -7.981
REMARK INTRA:                   0.000
REMARK UNBOUND:                 0.000
REMARK  Name = HEMCA.pdb
REMARK  4 active torsions:
REMARK  status: ('A' for Active; 'I' for Inactive)
REMARK    1  A    between atoms: C5_5  and  O19_19
REMARK    2  A    between atoms: C6_6  and  O18_18
REMARK    3  A    between atoms: C7_7  and  O20_20
REMARK    4  A    between atoms: C17_17  and  O21_21
REMARK                            x       y       z     vdW  Elec       q    Type
REMARK                         _______ _______ _______ _____ _____    ______ ____
ROOT
ATOM      1  C1  UNK H   1     -36.945  18.186 -25.434  0.00  0.00    +0.000 A 
ATOM      2  C2  UNK H   1     -38.256  18.358 -25.266  0.00  0.00    +0.000 A 
ATOM      3  C3  UNK H   1     -36.057  19.362 -25.526  0.00  0.00    +0.000 A 
ATOM      4  C4  UNK H   1     -38.815  19.708 -25.185  0.00  0.00    +0.000 A 
ATOM      5  C5  UNK H   1     -36.573  20.587 -25.465  0.00  0.00    +0.000 A 
ATOM      6  C6  UNK H   1     -38.015  20.768 -25.289  0.00  0.00    +0.000 A 
ATOM      7  C7  UNK H   1     -34.894  16.812 -25.976  0.00  0.00    +0.000 C 
ATOM      8  C8  UNK H   1     -36.312  16.872 -25.581  0.00  0.00    +0.000 C 
ATOM      9  C9  UNK H   1     -34.050  17.947 -25.397  0.00  0.00    +0.000 C 
ATOM     10  O10 UNK H   1     -34.676  19.201 -25.648  0.00  0.00    +0.000 OA
ATOM     11  C11 UNK H   1     -34.441  15.346 -25.685  0.00  0.00    +0.000 C 
ATOM     12  C12 UNK H   1     -35.793  14.692 -25.735  0.00  0.00    +0.000 C 
ATOM     13  C13 UNK H   1     -36.831  15.644 -25.547  0.00  0.00    +0.000 C 
ATOM     14  C14 UNK H   1     -36.029  13.387 -25.791  0.00  0.00    +0.000 C 
ATOM     15  C15 UNK H   1     -37.426  12.938 -25.684  0.00  0.00    +0.000 C 
ATOM     16  C16 UNK H   1     -38.216  15.227 -25.341  0.00  0.00    +0.000 C 
ATOM     17  C17 UNK H   1     -38.503  13.925 -25.416  0.00  0.00    +0.000 C 
ATOM     18  O22 UNK H   1     -37.697  11.735 -25.761  0.00  0.00    +0.000 OA
ENDROOT
BRANCH   6  19
ATOM     19  O18 UNK H   1     -38.549  22.050 -25.215  0.00  0.00    +0.000 OA
ATOM     20  H9  UNK H   1     -39.099  22.150 -24.325  0.00  0.00    +0.000 HD
ENDBRANCH   6  19
BRANCH   5  21
ATOM     21  O19 UNK H   1     -35.739  21.696 -25.543  0.00  0.00    +0.000 OA
ATOM     22  H10 UNK H   1     -36.241  22.480 -26.026  0.00  0.00    +0.000 HD
ENDBRANCH   5  21
BRANCH   7  23
ATOM     23  O20 UNK H   1     -34.949  16.972 -27.395  0.00  0.00    +0.000 OA
ATOM     24  H11 UNK H   1     -35.320  17.927 -27.626  0.00  0.00    +0.000 HD
ENDBRANCH   7  23
BRANCH  17  25
ATOM     25  O21 UNK H   1     -39.812  13.493 -25.242  0.00  0.00    +0.000 OA
ATOM     26  H12 UNK H   1     -39.824  12.656 -24.608  0.00  0.00    +0.000 HD
ENDBRANCH  17  25
TORSDOF 4
ENDMDL
MODEL 4
REMARK VINA RESULT:    -5.904      2.326      6.038
REMARK INTER + INTRA:          -6.594
REMARK INTER:                  -6.594
REMARK INTRA:                   0.000
REMARK UNBOUND:                 0.000
REMARK  Name = HEMCA.pdb
REMARK  4 active torsions:
REMARK  status: ('A' for Active; 'I' for Inactive)
REMARK    1  A    between atoms: C5_5  and  O19_19
REMARK    2  A    between atoms: C6_6  and  O18_18
REMARK    3  A    between atoms: C7_7  and  O20_20
REMARK    4  A    between atoms: C17_17  and  O21_21
REMARK                            x       y       z     vdW  Elec       q    Type
REMARK                         _______ _______ _______ _____ _____    ______ ____
ROOT
ATOM      1  C1  UNK H   1     -36.771  18.146 -25.008  0.00  0.00    +0.000 A 
ATOM      2  C2  UNK H   1     -36.155  19.323 -24.895  0.00  0.00    +0.000 A 
ATOM      3  C3  UNK H   1     -38.222  18.098 -25.273  0.00  0.00    +0.000 A 
ATOM      4  C4  UNK H   1     -36.919  20.565 -25.021  0.00  0.00    +0.000 A 
ATOM      5  C5  UNK H   1     -38.913  19.231 -25.374  0.00  0.00    +0.000 A 
ATOM      6  C6  UNK H   1     -38.233  20.521 -25.240  0.00  0.00    +0.000 A 
ATOM      7  C7  UNK H   1     -36.908  15.633 -24.773  0.00  0.00    +0.000 C 
ATOM      8  C8  UNK H   1     -36.091  16.857 -24.839  0.00  0.00    +0.000 C 
ATOM      9  C9  UNK H   1     -38.144  15.673 -25.670  0.00  0.00    +0.000 C 
ATOM     10  O10 UNK H   1     -38.872  16.876 -25.448  0.00  0.00    +0.000 OA
ATOM     11  C11 UNK H   1     -35.905  14.451 -24.965  0.00  0.00    +0.000 C 
ATOM     12  C12 UNK H   1     -34.655  15.159 -24.526  0.00  0.00    +0.000 C 
ATOM     13  C13 UNK H   1     -34.812  16.570 -24.595  0.00  0.00    +0.000 C 
ATOM     14  C14 UNK H   1     -33.490  14.588 -24.249  0.00  0.00    +0.000 C 
ATOM     15  C15 UNK H   1     -32.343  15.469 -23.977  0.00  0.00    +0.000 C 
ATOM     16  C16 UNK H   1     -33.674  17.470 -24.425  0.00  0.00    +0.000 C 
ATOM     17  C17 UNK H   1     -32.488  16.940 -24.119  0.00  0.00    +0.000 C 
ATOM     18  O22 UNK H   1     -31.245  14.982 -23.685  0.00  0.00    +0.000 OA
ENDROOT
BRANCH   6  19
ATOM     19  O18 UNK H   1     -38.957  21.702 -25.356  0.00  0.00    +0.000 OA
ATOM     20  H9  UNK H   1     -38.372  22.506 -25.017  0.00  0.00    +0.000 HD
ENDBRANCH   6  19
BRANCH   5  21
ATOM     21  O19 UNK H   1     -40.278  19.190 -25.632  0.00  0.00    +0.000 OA
ATOM     22  H10 UNK H   1     -40.440  19.226 -26.669  0.00  0.00    +0.000 HD
ENDBRANCH   5  21
BRANCH   7  23
ATOM     23  O20 UNK H   1     -37.342  15.611 -23.411  0.00  0.00    +0.000 OA
ATOM     24  H11 UNK H   1     -37.265  16.575 -23.003  0.00  0.00    +0.000 HD
ENDBRANCH   7  23
BRANCH  17  25
ATOM     25  O21 UNK H   1     -31.386  17.767 -23.934  0.00  0.00    +0.000 OA
ATOM     26  H12 UNK H   1     -30.978  18.021 -24.868  0.00  0.00    +0.000 HD
ENDBRANCH  17  25
TORSDOF 4
ENDMDL
MODEL 5
REMARK VINA RESULT:    -4.785      1.243      5.929
REMARK INTER + INTRA:          -5.345
REMARK INTER:                  -5.345
REMARK INTRA:                   0.000
REMARK UNBOUND:                 0.000
REMARK  Name = HEMCA.pdb
REMARK  4 active torsions:
REMARK  status: ('A' for Active; 'I' for Inactive)
REMARK    1  A    between atoms: C5_5  and  O19_19
REMARK    2  A    between atoms: C6_6  and  O18_18
REMARK    3  A    between atoms: C7_7  and  O20_20
REMARK    4  A    between atoms: C17_17  and  O21_21
REMARK                            x       y       z     vdW  Elec       q    Type
REMARK                         _______ _______ _______ _____ _____    ______ ____
ROOT
ATOM      1  C1  UNK H   1     -36.986  14.605 -25.966  0.00  0.00    +0.000 A 
ATOM      2  C2  UNK H   1     -36.291  13.571 -26.440  0.00  0.00    +0.000 A 
ATOM      3  C3  UNK H   1     -38.397  14.784 -26.360  0.00  0.00    +0.000 A 
ATOM      4  C4  UNK H   1     -36.921  12.623 -27.360  0.00  0.00    +0.000 A 
ATOM      5  C5  UNK H   1     -38.960  13.926 -27.208  0.00  0.00    +0.000 A 
ATOM      6  C6  UNK H   1     -38.188  12.798 -27.732  0.00  0.00    +0.000 A 
ATOM      7  C7  UNK H   1     -37.211  16.836 -24.800  0.00  0.00    +0.000 C 
ATOM      8  C8  UNK H   1     -36.415  15.630 -25.086  0.00  0.00    +0.000 C 
ATOM      9  C9  UNK H   1     -38.712  16.568 -24.699  0.00  0.00    +0.000 C 
ATOM     10  O10 UNK H   1     -39.156  15.829 -25.832  0.00  0.00    +0.000 OA
ATOM     11  C11 UNK H   1     -36.509  17.520 -23.583  0.00  0.00    +0.000 C 
ATOM     12  C12 UNK H   1     -35.142  16.925 -23.764  0.00  0.00    +0.000 C 
ATOM     13  C13 UNK H   1     -35.194  15.751 -24.563  0.00  0.00    +0.000 C 
ATOM     14  C14 UNK H   1     -34.030  17.319 -23.155  0.00  0.00    +0.000 C 
ATOM     15  C15 UNK H   1     -32.817  16.512 -23.356  0.00  0.00    +0.000 C 
ATOM     16  C16 UNK H   1     -34.033  14.875 -24.704  0.00  0.00    +0.000 C 
ATOM     17  C17 UNK H   1     -32.887  15.247 -24.130  0.00  0.00    +0.000 C 
ATOM     18  O22 UNK H   1     -31.752  16.857 -22.833  0.00  0.00    +0.000 OA
ENDROOT
BRANCH   6  19
ATOM     19  O18 UNK H   1     -38.784  11.897 -28.608  0.00  0.00    +0.000 OA
ATOM     20  H9  UNK H   1     -39.827  12.023 -28.585  0.00  0.00    +0.000 HD
ENDBRANCH   6  19
BRANCH   5  21
ATOM     21  O19 UNK H   1     -40.291  14.087 -27.575  0.00  0.00    +0.000 OA
ATOM     22  H10 UNK H   1     -40.658  14.988 -27.180  0.00  0.00    +0.000 HD
ENDBRANCH   5  21
BRANCH   7  23
ATOM     23  O20 UNK H   1     -36.977  17.654 -25.947  0.00  0.00    +0.000 OA
ATOM     24  H11 UNK H   1     -35.974  17.564 -26.244  0.00  0.00    +0.000 HD
ENDBRANCH   7  23
BRANCH  17  25
ATOM     25  O21 UNK H   1     -31.757  14.448 -24.257  0.00  0.00    +0.000 OA
ATOM     26  H12 UNK H   1     -31.571  13.957 -23.348  0.00  0.00    +0.000 HD
ENDBRANCH  17  25
TORSDOF 4
ENDMDL
