MODEL 1
REMARK VINA RESULT:    -7.019      0.000      0.000
REMARK INTER + INTRA:          -7.840
REMARK INTER:                  -7.840
REMARK INTRA:                   0.000
REMARK UNBOUND:                 0.000
REMARK  Name = HEMCA.pdb
REMARK  4 active torsions:
REMARK  status: ('A' for Active; 'I' for Inactive)
REMARK    1  A    between atoms: C5_5  and  O19_19
REMARK    2  A    between atoms: C6_6  and  O18_18
REMARK    3  A    between atoms: C7_7  and  O20_20
REMARK    4  A    between atoms: C17_17  and  O21_21
REMARK                            x       y       z     vdW  Elec       q    Type
REMARK                         _______ _______ _______ _____ _____    ______ ____
ROOT
ATOM      1  C1  UNK H   1     -14.548 -48.669 -22.027  0.00  0.00    +0.000 A 
ATOM      2  C2  UNK H   1     -15.720 -48.105 -21.741  0.00  0.00    +0.000 A 
ATOM      3  C3  UNK H   1     -14.025 -49.751 -21.169  0.00  0.00    +0.000 A 
ATOM      4  C4  UNK H   1     -16.481 -48.546 -20.571  0.00  0.00    +0.000 A 
ATOM      5  C5  UNK H   1     -14.715 -50.139 -20.099  0.00  0.00    +0.000 A 
ATOM      6  C6  UNK H   1     -15.998 -49.507 -19.785  0.00  0.00    +0.000 A 
ATOM      7  C7  UNK H   1     -12.333 -48.796 -23.237  0.00  0.00    +0.000 C 
ATOM      8  C8  UNK H   1     -13.697 -48.249 -23.145  0.00  0.00    +0.000 C 
ATOM      9  C9  UNK H   1     -12.221 -50.245 -22.765  0.00  0.00    +0.000 C 
ATOM     10  O10 UNK H   1     -12.826 -50.391 -21.484  0.00  0.00    +0.000 OA
ATOM     11  C11 UNK H   1     -11.845 -48.460 -24.683  0.00  0.00    +0.000 C 
ATOM     12  C12 UNK H   1     -12.760 -47.300 -24.952  0.00  0.00    +0.000 C 
ATOM     13  C13 UNK H   1     -13.883 -47.318 -24.082  0.00  0.00    +0.000 C 
ATOM     14  C14 UNK H   1     -12.654 -46.436 -25.955  0.00  0.00    +0.000 C 
ATOM     15  C15 UNK H   1     -13.736 -45.455 -26.130  0.00  0.00    +0.000 C 
ATOM     16  C16 UNK H   1     -15.019 -46.422 -24.287  0.00  0.00    +0.000 C 
ATOM     17  C17 UNK H   1     -14.943 -45.519 -25.268  0.00  0.00    +0.000 C 
ATOM     18  O22 UNK H   1     -13.666 -44.612 -27.032  0.00  0.00    +0.000 OA
ENDROOT
BRANCH   6  19
ATOM     19  O18 UNK H   1     -16.722 -49.923 -18.672  0.00  0.00    +0.000 OA
ATOM     20  H9  UNK H   1     -17.744 -49.742 -18.832  0.00  0.00    +0.000 HD
ENDBRANCH   6  19
BRANCH   5  21
ATOM     21  O19 UNK H   1     -14.229 -51.162 -19.294  0.00  0.00    +0.000 OA
ATOM     22  H10 UNK H   1     -14.694 -51.119 -18.354  0.00  0.00    +0.000 HD
ENDBRANCH   5  21
BRANCH   7  23
ATOM     23  O20 UNK H   1     -11.595 -47.970 -22.333  0.00  0.00    +0.000 OA
ATOM     24  H11 UNK H   1     -12.156 -47.821 -21.458  0.00  0.00    +0.000 HD
ENDBRANCH   7  23
BRANCH  17  25
ATOM     25  O21 UNK H   1     -15.996 -44.639 -25.482  0.00  0.00    +0.000 OA
ATOM     26  H12 UNK H   1     -16.624 -45.019 -26.233  0.00  0.00    +0.000 HD
ENDBRANCH  17  25
TORSDOF 4
ENDMDL
MODEL 2
REMARK VINA RESULT:    -6.773      2.018      2.417
REMARK INTER + INTRA:          -7.564
REMARK INTER:                  -7.564
REMARK INTRA:                   0.000
REMARK UNBOUND:                 0.000
REMARK  Name = HEMCA.pdb
REMARK  4 active torsions:
REMARK  status: ('A' for Active; 'I' for Inactive)
REMARK    1  A    between atoms: C5_5  and  O19_19
REMARK    2  A    between atoms: C6_6  and  O18_18
REMARK    3  A    between atoms: C7_7  and  O20_20
REMARK    4  A    between atoms: C17_17  and  O21_21
REMARK                            x       y       z     vdW  Elec       q    Type
REMARK                         _______ _______ _______ _____ _____    ______ ____
ROOT
ATOM      1  C1  UNK H   1     -13.513 -49.074 -20.488  0.00  0.00    +0.000 A 
ATOM      2  C2  UNK H   1     -13.712 -48.284 -19.433  0.00  0.00    +0.000 A 
ATOM      3  C3  UNK H   1     -13.278 -50.518 -20.290  0.00  0.00    +0.000 A 
ATOM      4  C4  UNK H   1     -13.685 -48.844 -18.081  0.00  0.00    +0.000 A 
ATOM      5  C5  UNK H   1     -13.241 -51.019 -19.057  0.00  0.00    +0.000 A 
ATOM      6  C6  UNK H   1     -13.452 -50.144 -17.903  0.00  0.00    +0.000 A 
ATOM      7  C7  UNK H   1     -13.030 -49.508 -22.930  0.00  0.00    +0.000 C 
ATOM      8  C8  UNK H   1     -13.468 -48.585 -21.870  0.00  0.00    +0.000 C 
ATOM      9  C9  UNK H   1     -13.468 -50.954 -22.702  0.00  0.00    +0.000 C 
ATOM     10  O10 UNK H   1     -13.122 -51.369 -21.385  0.00  0.00    +0.000 OA
ATOM     11  C11 UNK H   1     -13.441 -48.825 -24.274  0.00  0.00    +0.000 C 
ATOM     12  C12 UNK H   1     -13.503 -47.407 -23.782  0.00  0.00    +0.000 C 
ATOM     13  C13 UNK H   1     -13.638 -47.360 -22.368  0.00  0.00    +0.000 C 
ATOM     14  C14 UNK H   1     -13.579 -46.320 -24.539  0.00  0.00    +0.000 C 
ATOM     15  C15 UNK H   1     -13.779 -45.028 -23.863  0.00  0.00    +0.000 C 
ATOM     16  C16 UNK H   1     -13.933 -46.108 -21.675  0.00  0.00    +0.000 C 
ATOM     17  C17 UNK H   1     -13.992 -44.985 -22.394  0.00  0.00    +0.000 C 
ATOM     18  O22 UNK H   1     -13.827 -43.985 -24.525  0.00  0.00    +0.000 OA
ENDROOT
BRANCH   6  19
ATOM     19  O18 UNK H   1     -13.423 -50.673 -16.617  0.00  0.00    +0.000 OA
ATOM     20  H9  UNK H   1     -12.629 -51.356 -16.537  0.00  0.00    +0.000 HD
ENDBRANCH   6  19
BRANCH   5  21
ATOM     21  O19 UNK H   1     -13.029 -52.379 -18.868  0.00  0.00    +0.000 OA
ATOM     22  H10 UNK H   1     -13.835 -52.790 -18.335  0.00  0.00    +0.000 HD
ENDBRANCH   5  21
BRANCH   7  23
ATOM     23  O20 UNK H   1     -11.605 -49.450 -22.837  0.00  0.00    +0.000 OA
ATOM     24  H11 UNK H   1     -11.295 -49.885 -21.934  0.00  0.00    +0.000 HD
ENDBRANCH   7  23
BRANCH  17  25
ATOM     25  O21 UNK H   1     -14.254 -43.773 -21.766  0.00  0.00    +0.000 OA
ATOM     26  H12 UNK H   1     -13.608 -43.656 -20.947  0.00  0.00    +0.000 HD
ENDBRANCH  17  25
TORSDOF 4
ENDMDL
MODEL 3
REMARK VINA RESULT:    -6.610      1.965      3.496
REMARK INTER + INTRA:          -7.382
REMARK INTER:                  -7.382
REMARK INTRA:                   0.000
REMARK UNBOUND:                 0.000
REMARK  Name = HEMCA.pdb
REMARK  4 active torsions:
REMARK  status: ('A' for Active; 'I' for Inactive)
REMARK    1  A    between atoms: C5_5  and  O19_19
REMARK    2  A    between atoms: C6_6  and  O18_18
REMARK    3  A    between atoms: C7_7  and  O20_20
REMARK    4  A    between atoms: C17_17  and  O21_21
REMARK                            x       y       z     vdW  Elec       q    Type
REMARK                         _______ _______ _______ _____ _____    ______ ____
ROOT
ATOM      1  C1  UNK H   1     -12.737 -49.119 -23.207  0.00  0.00    +0.000 A 
ATOM      2  C2  UNK H   1     -12.015 -49.876 -24.033  0.00  0.00    +0.000 A 
ATOM      3  C3  UNK H   1     -13.118 -49.638 -21.879  0.00  0.00    +0.000 A 
ATOM      4  C4  UNK H   1     -11.613 -51.224 -23.629  0.00  0.00    +0.000 A 
ATOM      5  C5  UNK H   1     -12.760 -50.869 -21.523  0.00  0.00    +0.000 A 
ATOM      6  C6  UNK H   1     -11.976 -51.700 -22.439  0.00  0.00    +0.000 A 
ATOM      7  C7  UNK H   1     -14.191 -47.127 -22.653  0.00  0.00    +0.000 C 
ATOM      8  C8  UNK H   1     -13.228 -47.781 -23.555  0.00  0.00    +0.000 C 
ATOM      9  C9  UNK H   1     -13.950 -47.434 -21.175  0.00  0.00    +0.000 C 
ATOM     10  O10 UNK H   1     -13.826 -48.839 -20.980  0.00  0.00    +0.000 OA
ATOM     11  C11 UNK H   1     -14.220 -45.627 -23.091  0.00  0.00    +0.000 C 
ATOM     12  C12 UNK H   1     -13.735 -45.808 -24.500  0.00  0.00    +0.000 C 
ATOM     13  C13 UNK H   1     -13.059 -47.048 -24.656  0.00  0.00    +0.000 C 
ATOM     14  C14 UNK H   1     -13.773 -44.895 -25.463  0.00  0.00    +0.000 C 
ATOM     15  C15 UNK H   1     -13.113 -45.217 -26.738  0.00  0.00    +0.000 C 
ATOM     16  C16 UNK H   1     -12.312 -47.359 -25.873  0.00  0.00    +0.000 C 
ATOM     17  C17 UNK H   1     -12.346 -46.481 -26.878  0.00  0.00    +0.000 C 
ATOM     18  O22 UNK H   1     -13.148 -44.410 -27.674  0.00  0.00    +0.000 OA
ENDROOT
BRANCH   6  19
ATOM     19  O18 UNK H   1     -11.595 -52.982 -22.059  0.00  0.00    +0.000 OA
ATOM     20  H9  UNK H   1     -11.861 -53.664 -22.813  0.00  0.00    +0.000 HD
ENDBRANCH   6  19
BRANCH   5  21
ATOM     21  O19 UNK H   1     -13.110 -51.358 -20.270  0.00  0.00    +0.000 OA
ATOM     22  H10 UNK H   1     -14.156 -51.399 -20.189  0.00  0.00    +0.000 HD
ENDBRANCH   5  21
BRANCH   7  23
ATOM     23  O20 UNK H   1     -15.437 -47.712 -23.036  0.00  0.00    +0.000 OA
ATOM     24  H11 UNK H   1     -15.877 -47.133 -23.794  0.00  0.00    +0.000 HD
ENDBRANCH   7  23
BRANCH  17  25
ATOM     25  O21 UNK H   1     -11.661 -46.750 -28.057  0.00  0.00    +0.000 OA
ATOM     26  H12 UNK H   1     -12.342 -46.798 -28.855  0.00  0.00    +0.000 HD
ENDBRANCH  17  25
TORSDOF 4
ENDMDL
MODEL 4
REMARK VINA RESULT:    -6.525      1.865      3.306
REMARK INTER + INTRA:          -7.288
REMARK INTER:                  -7.288
REMARK INTRA:                   0.000
REMARK UNBOUND:                 0.000
REMARK  Name = HEMCA.pdb
REMARK  4 active torsions:
REMARK  status: ('A' for Active; 'I' for Inactive)
REMARK    1  A    between atoms: C5_5  and  O19_19
REMARK    2  A    between atoms: C6_6  and  O18_18
REMARK    3  A    between atoms: C7_7  and  O20_20
REMARK    4  A    between atoms: C17_17  and  O21_21
REMARK                            x       y       z     vdW  Elec       q    Type
REMARK                         _______ _______ _______ _____ _____    ______ ____
ROOT
ATOM      1  C1  UNK H   1     -12.975 -49.436 -22.081  0.00  0.00    +0.000 A 
ATOM      2  C2  UNK H   1     -12.501 -50.220 -23.048  0.00  0.00    +0.000 A 
ATOM      3  C3  UNK H   1     -13.173 -49.982 -20.723  0.00  0.00    +0.000 A 
ATOM      4  C4  UNK H   1     -12.190 -51.623 -22.769  0.00  0.00    +0.000 A 
ATOM      5  C5  UNK H   1     -12.901 -51.261 -20.480  0.00  0.00    +0.000 A 
ATOM      6  C6  UNK H   1     -12.389 -52.120 -21.549  0.00  0.00    +0.000 A 
ATOM      7  C7  UNK H   1     -14.074 -47.334 -21.206  0.00  0.00    +0.000 C 
ATOM      8  C8  UNK H   1     -13.365 -48.037 -22.289  0.00  0.00    +0.000 C 
ATOM      9  C9  UNK H   1     -13.614 -47.743 -19.807  0.00  0.00    +0.000 C 
ATOM     10  O10 UNK H   1     -13.617 -49.162 -19.686  0.00  0.00    +0.000 OA
ATOM     11  C11 UNK H   1     -14.010 -45.819 -21.581  0.00  0.00    +0.000 C 
ATOM     12  C12 UNK H   1     -13.803 -45.974 -23.060  0.00  0.00    +0.000 C 
ATOM     13  C13 UNK H   1     -13.311 -47.269 -23.377  0.00  0.00    +0.000 C 
ATOM     14  C14 UNK H   1     -13.907 -45.012 -23.969  0.00  0.00    +0.000 C 
ATOM     15  C15 UNK H   1     -13.522 -45.333 -25.353  0.00  0.00    +0.000 C 
ATOM     16  C16 UNK H   1     -12.829 -47.591 -24.719  0.00  0.00    +0.000 C 
ATOM     17  C17 UNK H   1     -12.939 -46.662 -25.671  0.00  0.00    +0.000 C 
ATOM     18  O22 UNK H   1     -13.629 -44.479 -26.238  0.00  0.00    +0.000 OA
ENDROOT
BRANCH   6  19
ATOM     19  O18 UNK H   1     -12.095 -53.454 -21.288  0.00  0.00    +0.000 OA
ATOM     20  H9  UNK H   1     -11.060 -53.564 -21.151  0.00  0.00    +0.000 HD
ENDBRANCH   6  19
BRANCH   5  21
ATOM     21  O19 UNK H   1     -13.078 -51.776 -19.201  0.00  0.00    +0.000 OA
ATOM     22  H10 UNK H   1     -12.746 -51.078 -18.492  0.00  0.00    +0.000 HD
ENDBRANCH   5  21
BRANCH   7  23
ATOM     23  O20 UNK H   1     -15.426 -47.763 -21.377  0.00  0.00    +0.000 OA
ATOM     24  H11 UNK H   1     -15.779 -47.445 -22.314  0.00  0.00    +0.000 HD
ENDBRANCH   7  23
BRANCH  17  25
ATOM     25  O21 UNK H   1     -12.508 -46.939 -26.962  0.00  0.00    +0.000 OA
ATOM     26  H12 UNK H   1     -13.165 -46.500 -27.653  0.00  0.00    +0.000 HD
ENDBRANCH  17  25
TORSDOF 4
ENDMDL
MODEL 5
REMARK VINA RESULT:    -6.464      2.274      6.725
REMARK INTER + INTRA:          -7.219
REMARK INTER:                  -7.219
REMARK INTRA:                   0.000
REMARK UNBOUND:                 0.000
REMARK  Name = HEMCA.pdb
REMARK  4 active torsions:
REMARK  status: ('A' for Active; 'I' for Inactive)
REMARK    1  A    between atoms: C5_5  and  O19_19
REMARK    2  A    between atoms: C6_6  and  O18_18
REMARK    3  A    between atoms: C7_7  and  O20_20
REMARK    4  A    between atoms: C17_17  and  O21_21
REMARK                            x       y       z     vdW  Elec       q    Type
REMARK                         _______ _______ _______ _____ _____    ______ ____
ROOT
ATOM      1  C1  UNK H   1     -13.577 -48.552 -22.216  0.00  0.00    +0.000 A 
ATOM      2  C2  UNK H   1     -13.122 -49.126 -23.330  0.00  0.00    +0.000 A 
ATOM      3  C3  UNK H   1     -14.039 -47.151 -22.247  0.00  0.00    +0.000 A 
ATOM      4  C4  UNK H   1     -13.068 -48.363 -24.578  0.00  0.00    +0.000 A 
ATOM      5  C5  UNK H   1     -13.975 -46.459 -23.383  0.00  0.00    +0.000 A 
ATOM      6  C6  UNK H   1     -13.466 -47.092 -24.600  0.00  0.00    +0.000 A 
ATOM      7  C7  UNK H   1     -13.931 -48.430 -19.716  0.00  0.00    +0.000 C 
ATOM      8  C8  UNK H   1     -13.611 -49.226 -20.913  0.00  0.00    +0.000 C 
ATOM      9  C9  UNK H   1     -14.954 -47.325 -19.972  0.00  0.00    +0.000 C 
ATOM     10  O10 UNK H   1     -14.569 -46.552 -21.104  0.00  0.00    +0.000 OA
ATOM     11  C11 UNK H   1     -14.247 -49.471 -18.595  0.00  0.00    +0.000 C 
ATOM     12  C12 UNK H   1     -13.496 -50.638 -19.171  0.00  0.00    +0.000 C 
ATOM     13  C13 UNK H   1     -13.268 -50.466 -20.563  0.00  0.00    +0.000 C 
ATOM     14  C14 UNK H   1     -13.199 -51.766 -18.537  0.00  0.00    +0.000 C 
ATOM     15  C15 UNK H   1     -12.585 -52.850 -19.321  0.00  0.00    +0.000 C 
ATOM     16  C16 UNK H   1     -12.749 -51.555 -21.388  0.00  0.00    +0.000 C 
ATOM     17  C17 UNK H   1     -12.413 -52.699 -20.788  0.00  0.00    +0.000 C 
ATOM     18  O22 UNK H   1     -12.265 -53.907 -18.768  0.00  0.00    +0.000 OA
ENDROOT
BRANCH   6  19
ATOM     19  O18 UNK H   1     -13.411 -46.369 -25.787  0.00  0.00    +0.000 OA
ATOM     20  H9  UNK H   1     -13.586 -47.013 -26.598  0.00  0.00    +0.000 HD
ENDBRANCH   6  19
BRANCH   5  21
ATOM     21  O19 UNK H   1     -14.417 -45.142 -23.417  0.00  0.00    +0.000 OA
ATOM     22  H10 UNK H   1     -13.597 -44.494 -23.319  0.00  0.00    +0.000 HD
ENDBRANCH   5  21
BRANCH   7  23
ATOM     23  O20 UNK H   1     -12.680 -47.818 -19.395  0.00  0.00    +0.000 OA
ATOM     24  H11 UNK H   1     -11.944 -48.150 -20.067  0.00  0.00    +0.000 HD
ENDBRANCH   7  23
BRANCH  17  25
ATOM     25  O21 UNK H   1     -11.901 -53.750 -21.539  0.00  0.00    +0.000 OA
ATOM     26  H12 UNK H   1     -11.128 -53.397 -22.155  0.00  0.00    +0.000 HD
ENDBRANCH  17  25
TORSDOF 4
ENDMDL
MODEL 6
REMARK VINA RESULT:    -6.424      1.979      6.641
REMARK INTER + INTRA:          -7.176
REMARK INTER:                  -7.176
REMARK INTRA:                   0.000
REMARK UNBOUND:                 0.000
REMARK  Name = HEMCA.pdb
REMARK  4 active torsions:
REMARK  status: ('A' for Active; 'I' for Inactive)
REMARK    1  A    between atoms: C5_5  and  O19_19
REMARK    2  A    between atoms: C6_6  and  O18_18
REMARK    3  A    between atoms: C7_7  and  O20_20
REMARK    4  A    between atoms: C17_17  and  O21_21
REMARK                            x       y       z     vdW  Elec       q    Type
REMARK                         _______ _______ _______ _____ _____    ______ ____
ROOT
ATOM      1  C1  UNK H   1     -13.039 -46.221 -24.429  0.00  0.00    +0.000 A 
ATOM      2  C2  UNK H   1     -12.938 -47.182 -25.347  0.00  0.00    +0.000 A 
ATOM      3  C3  UNK H   1     -12.665 -44.835 -24.773  0.00  0.00    +0.000 A 
ATOM      4  C4  UNK H   1     -12.445 -46.867 -26.689  0.00  0.00    +0.000 A 
ATOM      5  C5  UNK H   1     -12.205 -44.557 -25.991  0.00  0.00    +0.000 A 
ATOM      6  C6  UNK H   1     -12.087 -45.620 -26.991  0.00  0.00    +0.000 A 
ATOM      7  C7  UNK H   1     -13.338 -45.369 -22.069  0.00  0.00    +0.000 C 
ATOM      8  C8  UNK H   1     -13.469 -46.461 -23.048  0.00  0.00    +0.000 C 
ATOM      9  C9  UNK H   1     -13.590 -43.983 -22.661  0.00  0.00    +0.000 C 
ATOM     10  O10 UNK H   1     -12.816 -43.807 -23.843  0.00  0.00    +0.000 OA
ATOM     11  C11 UNK H   1     -14.200 -45.805 -20.840  0.00  0.00    +0.000 C 
ATOM     12  C12 UNK H   1     -14.187 -47.286 -21.086  0.00  0.00    +0.000 C 
ATOM     13  C13 UNK H   1     -13.864 -47.580 -22.439  0.00  0.00    +0.000 C 
ATOM     14  C14 UNK H   1     -14.568 -48.225 -20.229  0.00  0.00    +0.000 C 
ATOM     15  C15 UNK H   1     -14.620 -49.614 -20.712  0.00  0.00    +0.000 C 
ATOM     16  C16 UNK H   1     -13.998 -48.932 -22.976  0.00  0.00    +0.000 C 
ATOM     17  C17 UNK H   1     -14.353 -49.912 -22.142  0.00  0.00    +0.000 C 
ATOM     18  O22 UNK H   1     -14.941 -50.525 -19.941  0.00  0.00    +0.000 OA
ENDROOT
BRANCH   6  19
ATOM     19  O18 UNK H   1     -11.616 -45.323 -28.266  0.00  0.00    +0.000 OA
ATOM     20  H9  UNK H   1     -12.257 -44.628 -28.724  0.00  0.00    +0.000 HD
ENDBRANCH   6  19
BRANCH   5  21
ATOM     21  O19 UNK H   1     -11.859 -43.252 -26.321  0.00  0.00    +0.000 OA
ATOM     22  H10 UNK H   1     -12.673 -42.780 -26.787  0.00  0.00    +0.000 HD
ENDBRANCH   5  21
BRANCH   7  23
ATOM     23  O20 UNK H   1     -11.965 -45.449 -21.682  0.00  0.00    +0.000 OA
ATOM     24  H11 UNK H   1     -11.394 -44.801 -22.278  0.00  0.00    +0.000 HD
ENDBRANCH   7  23
BRANCH  17  25
ATOM     25  O21 UNK H   1     -14.474 -51.214 -22.613  0.00  0.00    +0.000 OA
ATOM     26  H12 UNK H   1     -15.461 -51.382 -22.928  0.00  0.00    +0.000 HD
ENDBRANCH  17  25
TORSDOF 4
ENDMDL
MODEL 7
REMARK VINA RESULT:    -6.209      2.263      6.342
REMARK INTER + INTRA:          -6.935
REMARK INTER:                  -6.935
REMARK INTRA:                   0.000
REMARK UNBOUND:                 0.000
REMARK  Name = HEMCA.pdb
REMARK  4 active torsions:
REMARK  status: ('A' for Active; 'I' for Inactive)
REMARK    1  A    between atoms: C5_5  and  O19_19
REMARK    2  A    between atoms: C6_6  and  O18_18
REMARK    3  A    between atoms: C7_7  and  O20_20
REMARK    4  A    between atoms: C17_17  and  O21_21
REMARK                            x       y       z     vdW  Elec       q    Type
REMARK                         _______ _______ _______ _____ _____    ______ ____
ROOT
ATOM      1  C1  UNK H   1     -13.304 -46.786 -24.165  0.00  0.00    +0.000 A 
ATOM      2  C2  UNK H   1     -12.957 -47.174 -25.391  0.00  0.00    +0.000 A 
ATOM      3  C3  UNK H   1     -13.755 -45.399 -23.933  0.00  0.00    +0.000 A 
ATOM      4  C4  UNK H   1     -13.010 -46.224 -26.504  0.00  0.00    +0.000 A 
ATOM      5  C5  UNK H   1     -13.788 -44.537 -24.946  0.00  0.00    +0.000 A 
ATOM      6  C6  UNK H   1     -13.397 -44.967 -26.290  0.00  0.00    +0.000 A 
ATOM      7  C7  UNK H   1     -13.429 -47.061 -21.655  0.00  0.00    +0.000 C 
ATOM      8  C8  UNK H   1     -13.226 -47.657 -22.987  0.00  0.00    +0.000 C 
ATOM      9  C9  UNK H   1     -14.462 -45.935 -21.640  0.00  0.00    +0.000 C 
ATOM     10  O10 UNK H   1     -14.173 -44.991 -22.666  0.00  0.00    +0.000 OA
ATOM     11  C11 UNK H   1     -13.651 -48.268 -20.688  0.00  0.00    +0.000 C 
ATOM     12  C12 UNK H   1     -12.966 -49.325 -21.506  0.00  0.00    +0.000 C 
ATOM     13  C13 UNK H   1     -12.863 -48.934 -22.869  0.00  0.00    +0.000 C 
ATOM     14  C14 UNK H   1     -12.623 -50.537 -21.088  0.00  0.00    +0.000 C 
ATOM     15  C15 UNK H   1     -12.092 -51.480 -22.085  0.00  0.00    +0.000 C 
ATOM     16  C16 UNK H   1     -12.432 -49.877 -23.899  0.00  0.00    +0.000 C 
ATOM     17  C17 UNK H   1     -12.052 -51.099 -23.519  0.00  0.00    +0.000 C 
ATOM     18  O22 UNK H   1     -11.732 -52.610 -21.736  0.00  0.00    +0.000 OA
ENDROOT
BRANCH   6  19
ATOM     19  O18 UNK H   1     -13.443 -44.066 -27.348  0.00  0.00    +0.000 OA
ATOM     20  H9  UNK H   1     -13.514 -43.087 -26.971  0.00  0.00    +0.000 HD
ENDBRANCH   6  19
BRANCH   5  21
ATOM     21  O19 UNK H   1     -14.220 -43.233 -24.733  0.00  0.00    +0.000 OA
ATOM     22  H10 UNK H   1     -13.396 -42.583 -24.750  0.00  0.00    +0.000 HD
ENDBRANCH   5  21
BRANCH   7  23
ATOM     23  O20 UNK H   1     -12.148 -46.501 -21.357  0.00  0.00    +0.000 OA
ATOM     24  H11 UNK H   1     -11.908 -45.773 -22.075  0.00  0.00    +0.000 HD
ENDBRANCH   7  23
BRANCH  17  25
ATOM     25  O21 UNK H   1     -11.619 -52.016 -24.469  0.00  0.00    +0.000 OA
ATOM     26  H12 UNK H   1     -12.324 -52.074 -25.246  0.00  0.00    +0.000 HD
ENDBRANCH  17  25
TORSDOF 4
ENDMDL
MODEL 8
REMARK VINA RESULT:    -6.029      2.502      6.294
REMARK INTER + INTRA:          -6.734
REMARK INTER:                  -6.734
REMARK INTRA:                   0.000
REMARK UNBOUND:                 0.000
REMARK  Name = HEMCA.pdb
REMARK  4 active torsions:
REMARK  status: ('A' for Active; 'I' for Inactive)
REMARK    1  A    between atoms: C5_5  and  O19_19
REMARK    2  A    between atoms: C6_6  and  O18_18
REMARK    3  A    between atoms: C7_7  and  O20_20
REMARK    4  A    between atoms: C17_17  and  O21_21
REMARK                            x       y       z     vdW  Elec       q    Type
REMARK                         _______ _______ _______ _____ _____    ______ ____
ROOT
ATOM      1  C1  UNK H   1     -13.576 -48.397 -21.488  0.00  0.00    +0.000 A 
ATOM      2  C2  UNK H   1     -13.720 -47.850 -20.282  0.00  0.00    +0.000 A 
ATOM      3  C3  UNK H   1     -13.784 -47.576 -22.697  0.00  0.00    +0.000 A 
ATOM      4  C4  UNK H   1     -14.098 -46.441 -20.156  0.00  0.00    +0.000 A 
ATOM      5  C5  UNK H   1     -14.140 -46.299 -22.576  0.00  0.00    +0.000 A 
ATOM      6  C6  UNK H   1     -14.307 -45.707 -21.248  0.00  0.00    +0.000 A 
ATOM      7  C7  UNK H   1     -13.330 -50.352 -23.071  0.00  0.00    +0.000 C 
ATOM      8  C8  UNK H   1     -13.255 -49.812 -21.703  0.00  0.00    +0.000 C 
ATOM      9  C9  UNK H   1     -12.903 -49.355 -24.147  0.00  0.00    +0.000 C 
ATOM     10  O10 UNK H   1     -13.583 -48.118 -23.967  0.00  0.00    +0.000 OA
ATOM     11  C11 UNK H   1     -12.593 -51.729 -23.017  0.00  0.00    +0.000 C 
ATOM     12  C12 UNK H   1     -12.743 -51.994 -21.547  0.00  0.00    +0.000 C 
ATOM     13  C13 UNK H   1     -13.014 -50.794 -20.834  0.00  0.00    +0.000 C 
ATOM     14  C14 UNK H   1     -12.512 -53.147 -20.932  0.00  0.00    +0.000 C 
ATOM     15  C15 UNK H   1     -12.575 -53.165 -19.462  0.00  0.00    +0.000 C 
ATOM     16  C16 UNK H   1     -12.989 -50.756 -19.373  0.00  0.00    +0.000 C 
ATOM     17  C17 UNK H   1     -12.786 -51.899 -18.714  0.00  0.00    +0.000 C 
ATOM     18  O22 UNK H   1     -12.396 -54.222 -18.848  0.00  0.00    +0.000 OA
ENDROOT
BRANCH   6  19
ATOM     19  O18 UNK H   1     -14.669 -44.370 -21.125  0.00  0.00    +0.000 OA
ATOM     20  H9  UNK H   1     -14.991 -44.182 -20.143  0.00  0.00    +0.000 HD
ENDBRANCH   6  19
BRANCH   5  21
ATOM     21  O19 UNK H   1     -14.329 -45.521 -23.712  0.00  0.00    +0.000 OA
ATOM     22  H10 UNK H   1     -13.416 -45.088 -23.996  0.00  0.00    +0.000 HD
ENDBRANCH   5  21
BRANCH   7  23
ATOM     23  O20 UNK H   1     -14.725 -50.618 -23.234  0.00  0.00    +0.000 OA
ATOM     24  H11 UNK H   1     -15.190 -50.640 -22.292  0.00  0.00    +0.000 HD
ENDBRANCH   7  23
BRANCH  17  25
ATOM     25  O21 UNK H   1     -12.772 -51.905 -17.324  0.00  0.00    +0.000 OA
ATOM     26  H12 UNK H   1     -12.283 -52.769 -16.982  0.00  0.00    +0.000 HD
ENDBRANCH  17  25
TORSDOF 4
ENDMDL
