MODEL 1
REMARK VINA RESULT:    -7.418      0.000      0.000
REMARK INTER + INTRA:         -11.007
REMARK INTER:                 -10.454
REMARK INTRA:                  -0.553
REMARK UNBOUND:                -0.553
REMARK  Name = KETCA.pdb
REMARK  8 active torsions:
REMARK  status: ('A' for Active; 'I' for Inactive)
REMARK    1  A    between atoms: O5_5  and  C16_16
REMARK    2  A    between atoms: O5_5  and  C24_24
REMARK    3  A    between atoms: N7_7  and  C21_21
REMARK    4  A    between atoms: N9_9  and  C14_14
REMARK    5  A    between atoms: C11_11  and  C14_14
REMARK    6  A    between atoms: C11_11  and  C15_15
REMARK    7  A    between atoms: C12_12  and  C16_16
REMARK    8  A    between atoms: C25_25  and  C36_36
REMARK                            x       y       z     vdW  Elec       q    Type
REMARK                         _______ _______ _______ _____ _____    ______ ____
ROOT
ATOM      1  O3  UNK K   1     -13.612 -48.233 -21.222  0.00  0.00    +0.000 OA
ATOM      2  O4  UNK K   1     -11.595 -47.066 -21.182  0.00  0.00    +0.000 OA
ATOM      3  C11 UNK K   1     -12.553 -47.631 -22.115  0.00  0.00    +0.000 C 
ATOM      4  C12 UNK K   1     -13.102 -48.059 -19.844  0.00  0.00    +0.000 C 
ATOM      5  C13 UNK K   1     -11.597 -48.097 -20.114  0.00  0.00    +0.000 C 
ENDROOT
BRANCH   3   8
ATOM      6 CL1  UNK K   1     -13.856 -44.733 -21.305  0.00  0.00    +0.000 Cl
ATOM      7 CL2  UNK K   1     -14.918 -44.002 -26.496  0.00  0.00    +0.000 Cl
ATOM      8  C15 UNK K   1     -13.220 -46.616 -23.146  0.00  0.00    +0.000 A 
ATOM      9  C22 UNK K   1     -13.727 -45.390 -22.879  0.00  0.00    +0.000 A 
ATOM     10  C23 UNK K   1     -13.192 -47.046 -24.561  0.00  0.00    +0.000 A 
ATOM     11  C32 UNK K   1     -14.298 -44.571 -23.971  0.00  0.00    +0.000 A 
ATOM     12  C33 UNK K   1     -13.711 -46.295 -25.533  0.00  0.00    +0.000 A 
ATOM     13  C34 UNK K   1     -14.265 -44.991 -25.231  0.00  0.00    +0.000 A 
ENDBRANCH   3   8
BRANCH   3  14
ATOM     14  C14 UNK K   1     -11.780 -48.821 -22.857  0.00  0.00    +0.000 C 
BRANCH  14  15
ATOM     15  N9  UNK K   1     -12.385 -50.180 -22.773  0.00  0.00    +0.000 N 
ATOM     16  N10 UNK K   1     -13.854 -51.752 -22.993  0.00  0.00    +0.000 NA
ATOM     17  C28 UNK K   1     -11.995 -51.188 -21.891  0.00  0.00    +0.000 A 
ATOM     18  C29 UNK K   1     -13.561 -50.579 -23.414  0.00  0.00    +0.000 A 
ATOM     19  C35 UNK K   1     -12.890 -52.166 -22.035  0.00  0.00    +0.000 A 
ENDBRANCH  14  15
ENDBRANCH   3  14
BRANCH   4  20
ATOM     20  C16 UNK K   1     -13.751 -49.092 -18.716  0.00  0.00    +0.000 C 
BRANCH  20  21
ATOM     21  O5  UNK K   1     -15.196 -48.810 -18.367  0.00  0.00    +0.000 OA
BRANCH  21  23
ATOM     22  C21 UNK K   1     -18.261 -49.624 -21.461  0.00  0.00    +0.000 A 
ATOM     23  C24 UNK K   1     -16.303 -49.065 -19.376  0.00  0.00    +0.000 A 
ATOM     24  C26 UNK K   1     -18.650 -49.348 -20.202  0.00  0.00    +0.000 A 
ATOM     25  C27 UNK K   1     -16.817 -49.624 -21.744  0.00  0.00    +0.000 A 
ATOM     26  C30 UNK K   1     -17.618 -49.040 -19.099  0.00  0.00    +0.000 A 
ATOM     27  C31 UNK K   1     -15.912 -49.376 -20.783  0.00  0.00    +0.000 A 
BRANCH  22  29
ATOM     28  O6  UNK K   1     -21.946 -52.036 -26.294  0.00  0.00    +0.000 OA
ATOM     29  N7  UNK K   1     -19.225 -49.941 -22.551  0.00  0.00    +0.000 N 
ATOM     30  N8  UNK K   1     -21.005 -50.561 -24.777  0.00  0.00    +0.000 N 
ATOM     31  C17 UNK K   1     -19.905 -51.227 -22.620  0.00  0.00    +0.000 C 
ATOM     32  C18 UNK K   1     -19.481 -48.967 -23.610  0.00  0.00    +0.000 C 
ATOM     33  C19 UNK K   1     -20.253 -51.611 -24.121  0.00  0.00    +0.000 C 
ATOM     34  C20 UNK K   1     -20.883 -49.203 -24.299  0.00  0.00    +0.000 C 
ATOM     35  C25 UNK K   1     -21.857 -50.871 -25.886  0.00  0.00    +0.000 C 
ATOM     36  C36 UNK K   1     -22.679 -49.794 -26.554  0.00  0.00    +0.000 C 
ENDBRANCH  22  29
ENDBRANCH  21  23
ENDBRANCH  20  21
ENDBRANCH   4  20
TORSDOF 7
ENDMDL
